@<TRIPOS>MOLECULE
9E5
   46    48     1     0     0
SMALL
No Charge or Current Charge


@<TRIPOS>ATOM
      1 C4           5.5400    -0.1170    -1.3160 ca         1 9E5      -0.050000
      2 C5           4.3250     0.1850    -0.6880 ca         1 9E5      -0.138800
      3 C6           3.4260     1.3170    -0.8590 cc         1 9E5      -0.027400
      4 C7           2.3950     1.0500     0.0400 cd         1 9E5      -0.071100
      5 C9           3.7970    -0.6550     0.2650 ca         1 9E5       0.089100
      6 C10          4.4200    -1.8460     0.6690 ca         1 9E5      -0.078300
      7 C12          1.1820     1.8790     0.2960 c          1 9E5       0.648300
      8 C3           6.2000    -1.3060    -0.9390 ca         1 9E5      -0.131000
      9 O24         -5.8720    -1.8150    -1.1020 o          1 9E5      -0.530000
     10 O23         -5.5200    -0.0430    -2.9310 o          1 9E5      -0.530000
     11 N25         -6.8650     0.4060    -0.9150 n8         1 9E5      -0.998100
     12 C19         -4.2390     0.2380    -0.5860 ca         1 9E5      -0.319500
     13 C18         -3.8190    -0.3790     0.6120 ca         1 9E5      -0.017000
     14 C17         -2.7470     0.1620     1.3420 ca         1 9E5      -0.119500
     15 C20         -3.5760     1.3960    -1.0430 ca         1 9E5      -0.017000
     16 C21         -2.5050     1.9310    -0.3070 ca         1 9E5      -0.119500
     17 C16         -2.0850     1.3190     0.8900 ca         1 9E5      -0.053300
     18 C15         -0.9210     1.8990     1.6810 c3         1 9E5       0.138300
     19 N14          0.3560     1.3300     1.2500 ns         1 9E5      -0.496900
     20 O13          0.9250     2.9360    -0.2670 o          1 9E5      -0.597100
     21 C26          3.5940     2.4850    -1.7960 c3         1 9E5      -0.037900
     22 O8           2.6240    -0.1310     0.7090 os         1 9E5      -0.187200
     23 C2           5.6540    -2.1720     0.0450 ca         1 9E5      -0.044300
     24 C1           6.4070    -3.4460     0.4160 c3         1 9E5      -0.050800
     25 H1           5.9660     0.5400    -2.0710 ha         1 9E5       0.123000
     26 H2           3.5820    -3.7410     1.3320 hc         1 9E5       0.045700
     27 H3           4.4540    -2.8550     2.5960 hc         1 9E5       0.045700
     28 H4           2.8400    -2.3360     2.1010 hc         1 9E5       0.045700
     29 H5           7.1440    -1.5560    -1.4170 ha         1 9E5       0.116000
     30 H6          -7.4720    -0.3500    -0.6080 hn         1 9E5       0.476500
     31 H7          -6.4700     0.7680    -0.0510 hn         1 9E5       0.476500
     32 H8          -4.3150    -1.2760     0.9810 ha         1 9E5       0.137000
     33 H9          -2.4290    -0.3230     2.2630 ha         1 9E5       0.124500
     34 H10         -3.8860     1.8850    -1.9660 ha         1 9E5       0.137000
     35 H11         -1.9980     2.8220    -0.6690 ha         1 9E5       0.124500
     36 H12         -0.8990     2.9910     1.5670 h1         1 9E5       0.070200
     37 H13         -1.0590     1.6840     2.7490 h1         1 9E5       0.070200
     38 H14          0.6600     0.4500     1.6470 hn         1 9E5       0.334500
     39 H15          4.5170     2.4040    -2.3800 hc         1 9E5       0.056700
     40 H16          2.7570     2.5410    -2.5010 hc         1 9E5       0.056700
     41 H17          3.6320     3.4280    -1.2380 hc         1 9E5       0.056700
     42 H18          5.7990    -4.3360     0.2150 hc         1 9E5       0.045367
     43 H19          7.3380    -3.5500    -0.1530 hc         1 9E5       0.045367
     44 H20          6.6720    -3.4510     1.4800 hc         1 9E5       0.045367
     45 C11          3.7890    -2.7420     1.7320 c3         1 9E5      -0.038800
     46 S22         -5.6080    -0.4420    -1.5260 sy         1 9E5       1.142600
@<TRIPOS>BOND
     1     1     2 ar  
     2     1     8 ar  
     3     1    25 1   
     4     2     3 1   
     5     2     5 ar  
     6     3     4 2   
     7     3    21 1   
     8     4     7 1   
     9     4    22 1   
    10     5     6 ar  
    11     5    22 1   
    12     6    23 ar  
    13     6    45 1   
    14     7    19 1   
    15     7    20 2   
    16     8    23 ar  
    17     8    29 1   
    18     9    46 2   
    19    10    46 2   
    20    11    30 1   
    21    11    31 1   
    22    11    46 1   
    23    12    13 ar  
    24    12    15 ar  
    25    12    46 1   
    26    13    14 ar  
    27    13    32 1   
    28    14    17 ar  
    29    14    33 1   
    30    15    16 ar  
    31    15    34 1   
    32    16    17 ar  
    33    16    35 1   
    34    17    18 1   
    35    18    19 1   
    36    18    36 1   
    37    18    37 1   
    38    19    38 1   
    39    21    39 1   
    40    21    40 1   
    41    21    41 1   
    42    23    24 1   
    43    24    42 1   
    44    24    43 1   
    45    24    44 1   
    46    26    45 1   
    47    27    45 1   
    48    28    45 1   
@<TRIPOS>SUBSTRUCTURE
     1 9E5         1 TEMP              0 ****  ****    0 ROOT
