@<TRIPOS>MOLECULE
9E6
   11    11     1     0     0
SMALL
abcg2


@<TRIPOS>ATOM
      1 C1          -2.4540    -0.4490     0.0090 c          1 9E6       0.730600
      2 S1           1.0440     1.5540     0.0280 ss         1 9E6       0.076000
      3 C2          -1.0180     0.0300     0.0150 cc         1 9E6      -0.152600
      4 C4           0.1130    -0.8390     0.0140 cc         1 9E6      -0.063000
      5 C5           1.2820    -0.1520     0.0200 cd         1 9E6      -0.056000
      6 C7          -0.6570     1.3450     0.0230 cd         1 9E6      -0.199000
      7 O8          -2.6160    -1.6840     0.0150 o          1 9E6      -0.716500
      8 O9          -3.3330     0.4320    -0.0010 o          1 9E6      -0.716500
      9 CL1          2.8660    -0.8010     0.0200 cl         1 9E6      -0.208000
     10 H1           0.0490    -1.9170     0.0080 ha         1 9E6       0.151000
     11 H2          -1.3070     2.2060     0.0260 h4         1 9E6       0.155000
@<TRIPOS>BOND
     1     1     3 1   
     2     1     7 1   
     3     1     8 1   
     4     2     5 1   
     5     2     6 1   
     6     3     4 1   
     7     3     6 2   
     8     4     5 2   
     9     4    10 1   
    10     5     9 1   
    11     6    11 1   
@<TRIPOS>SUBSTRUCTURE
     1 9E6         1 TEMP              0 ****  ****    0 ROOT
