@<TRIPOS>MOLECULE
9E6
   11    11     1     0     0
SMALL
No Charge or Current Charge


@<TRIPOS>ATOM
      1 C1          -2.4290    -0.4600     0.0090 c          1 9E6       0.730600
      2 S1           1.0790     1.6040     0.0270 ss         1 9E6       0.076000
      3 C2          -1.0230     0.0400     0.0150 cc         1 9E6      -0.152600
      4 C4           0.1140    -0.8170     0.0150 cc         1 9E6      -0.063000
      5 C5           1.3090    -0.1500     0.0210 cd         1 9E6      -0.056000
      6 C7          -0.6800     1.3770     0.0210 cd         1 9E6      -0.199000
      7 O8          -2.6240    -1.6670     0.0040 o          1 9E6      -0.716500
      8 O9          -3.3440     0.3530     0.0100 o          1 9E6      -0.716500
      9 Cl1          2.8770    -0.8910     0.0220 cl         1 9E6      -0.208000
     10 H1           0.0300    -1.9000     0.0110 ha         1 9E6       0.151000
     11 H2          -1.3400     2.2360     0.0230 h4         1 9E6       0.155000
@<TRIPOS>BOND
     1     1     3 1   
     2     1     7 1   
     3     1     8 1   
     4     2     5 1   
     5     2     6 1   
     6     3     4 1   
     7     3     6 2   
     8     4     5 2   
     9     4    10 1   
    10     5     9 1   
    11     6    11 1   
@<TRIPOS>SUBSTRUCTURE
     1 9E6         1 TEMP              0 ****  ****    0 ROOT
