@<TRIPOS>MOLECULE
9E7
   27    26     1     0     0
SMALL
bcc


@<TRIPOS>ATOM
      1 C           19.4840    13.8680   -30.5510 c          1 9E7       0.898600
      2 S           23.8270    10.7050   -34.5340 sh         1 9E7      -0.410900
      3 N           18.3900    16.1010   -30.1340 n8         1 9E7      -0.893800
      4 CA          18.9970    15.2170   -31.1290 c3         1 9E7       0.013500
      5 CB          20.1490    15.9700   -31.8020 c3         1 9E7      -0.047400
      6 CG          20.8260    15.2200   -32.9560 c3         1 9E7      -0.060400
      7 CD          22.1130    14.4940   -32.5690 c3         1 9E7      -0.079400
      8 CE          22.7790    13.7640   -33.7260 c3         1 9E7       0.169800
      9 NZ          22.0020    12.6220   -34.1740 n7         1 9E7      -0.782200
     10 O           19.2400    12.8370   -31.2110 o          1 9E7      -0.838800
     11 C1          22.6050    11.8850   -35.2450 c3         1 9E7       0.303900
     12 OXT         20.1020    13.9310   -29.4660 o          1 9E7      -0.838800
     13 H1          24.7020    10.7060   -35.5460 hs         1 9E7       0.175800
     14 HA          18.2410    15.0180   -31.8970 h1         1 9E7       0.034700
     15 HB2         20.8950    16.2300   -31.0420 hc         1 9E7       0.024700
     16 HB3         19.7460    16.9180   -32.1650 hc         1 9E7       0.024700
     17 HG2         21.0690    15.9270   -33.7550 hc         1 9E7       0.020700
     18 HG3         20.1080    14.5180   -33.3910 hc         1 9E7       0.020700
     19 HD2         21.9330    13.7840   -31.7590 hc         1 9E7       0.065200
     20 HD3         22.8230    15.2300   -32.1810 hc         1 9E7       0.065200
     21 HE2         23.7560    13.3960   -33.4040 h1         1 9E7       0.015700
     22 HE3         22.9730    14.4760   -34.5450 h1         1 9E7       0.015700
     23 HZ1         21.0730    12.9050   -34.4530 hn         1 9E7       0.382800
     24 H17         21.8360    11.3200   -35.7690 h2         1 9E7       0.033200
     25 H18         23.1360    12.5010   -35.9820 h2         1 9E7       0.033200
     26 H2          17.5520    15.6580   -29.7740 hn         1 9E7       0.326300
     27 H           19.0200    16.1380   -29.3400 hn         1 9E7       0.326300
@<TRIPOS>BOND
     1     1     4 1   
     2     1    10 1   
     3     1    12 1   
     4     2    11 1   
     5     2    13 1   
     6     3     4 1   
     7     3    26 1   
     8     3    27 1   
     9     4     5 1   
    10     4    14 1   
    11     5     6 1   
    12     5    15 1   
    13     5    16 1   
    14     6     7 1   
    15     6    17 1   
    16     6    18 1   
    17     7     8 1   
    18     7    19 1   
    19     7    20 1   
    20     8     9 1   
    21     8    21 1   
    22     8    22 1   
    23     9    11 1   
    24     9    23 1   
    25    11    24 1   
    26    11    25 1   
@<TRIPOS>SUBSTRUCTURE
     1 9E7         1 TEMP              0 ****  ****    0 ROOT
