@<TRIPOS>MOLECULE
9E8
   39    40     1     0     0
SMALL
bcc


@<TRIPOS>ATOM
      1 N1           7.7740    -0.6980    -0.2880 n8         1 9E8      -0.893700
      2 C1           5.2310    -0.0190    -0.0270 ca         1 9E8      -0.269500
      3 C2           4.5830     0.0030     1.1980 ca         1 9E8      -0.023500
      4 C3           3.3090    -0.5380     1.2940 ca         1 9E8      -0.145000
      5 C4           2.6820    -1.0950     0.1850 ca         1 9E8      -0.027300
      6 C5           3.3550    -1.1000    -1.0370 ca         1 9E8      -0.145000
      7 C6           4.6260    -0.5660    -1.1520 ca         1 9E8      -0.023500
      8 C7           0.2630    -0.5850    -0.1190 c3         1 9E8       0.117000
      9 C            1.2880    -1.6420     0.2840 c3         1 9E8      -0.058100
     10 C8          -2.1680    -0.3410    -0.0660 c          1 9E8       0.796100
     11 C10         -6.3330     1.1820    -0.1010 ca         1 9E8      -0.090000
     12 C11         -4.9980     0.8020    -0.0900 ca         1 9E8      -0.169000
     13 C12         -4.6510    -0.5520    -0.1000 ca         1 9E8       0.096600
     14 C13         -7.3330     0.2260    -0.1220 ca         1 9E8      -0.004600
     15 C14         -5.6800    -1.5000    -0.1220 ca         1 9E8      -0.169000
     16 C15         -7.0090    -1.1210    -0.1320 ca         1 9E8      -0.090000
     17 O8          -2.1030     0.8800    -0.0550 o          1 9E8      -0.617100
     18 N8          -3.3510    -1.0420    -0.0900 ns         1 9E8      -0.488100
     19 CL1         -8.9980     0.7150    -0.1350 cl         1 9E8      -0.113400
     20 N7          -1.0710    -1.1340    -0.0370 ns         1 9E8      -0.592900
     21 S            6.8530     0.6690    -0.1790 sy         1 9E8       1.265200
     22 O1           7.1250     1.4400     1.0280 o          1 9E8      -0.612800
     23 O2           6.9810     1.3360    -1.4670 o          1 9E8      -0.612800
     24 H1           8.6830    -0.5010    -0.6950 hn         1 9E8       0.418300
     25 H2           7.8810    -1.1700     0.6040 hn         1 9E8       0.418300
     26 H3           5.0550     0.4300     2.0710 ha         1 9E8       0.157000
     27 H4           2.8020    -0.5300     2.2510 ha         1 9E8       0.138000
     28 H5           2.8810    -1.5310    -1.9100 ha         1 9E8       0.138000
     29 H6           5.1330    -0.5810    -2.1070 ha         1 9E8       0.157000
     30 H7           0.3410     0.2730     0.5500 h1         1 9E8       0.060700
     31 H8           0.4850    -0.2260    -1.1310 h1         1 9E8       0.060700
     32 H9           1.1900    -2.5140    -0.3690 hc         1 9E8       0.055200
     33 H10          1.0830    -1.9740     1.3040 hc         1 9E8       0.055200
     34 H12         -4.2420     1.5680    -0.0720 ha         1 9E8       0.150500
     35 H13         -5.4400    -2.5570    -0.1310 ha         1 9E8       0.150500
     36 H14         -7.7830    -1.8770    -0.1490 ha         1 9E8       0.147500
     37 H15         -3.2830    -2.0480    -0.0910 hn         1 9E8       0.310500
     38 H16         -1.1710    -2.1250    -0.1880 hn         1 9E8       0.306500
     39 H11         -6.5800     2.2350    -0.0930 ha         1 9E8       0.147500
@<TRIPOS>BOND
     1     1    21 1   
     2     1    24 1   
     3     1    25 1   
     4     2     3 ar  
     5     2     7 ar  
     6     2    21 1   
     7     3     4 ar  
     8     3    26 1   
     9     4     5 ar  
    10     4    27 1   
    11     5     6 ar  
    12     5     9 1   
    13     6     7 ar  
    14     6    28 1   
    15     7    29 1   
    16     8     9 1   
    17     8    20 1   
    18     8    30 1   
    19     8    31 1   
    20     9    32 1   
    21     9    33 1   
    22    10    17 2   
    23    10    18 1   
    24    10    20 1   
    25    11    12 ar  
    26    11    14 ar  
    27    11    39 1   
    28    12    13 ar  
    29    12    34 1   
    30    13    15 ar  
    31    13    18 1   
    32    14    16 ar  
    33    14    19 1   
    34    15    16 ar  
    35    15    35 1   
    36    16    36 1   
    37    18    37 1   
    38    20    38 1   
    39    21    22 2   
    40    21    23 2   
@<TRIPOS>SUBSTRUCTURE
     1 9E8         1 TEMP              0 ****  ****    0 ROOT
