@<TRIPOS>MOLECULE
9E8
   39    40     1     0     0
SMALL
No Charge or Current Charge


@<TRIPOS>ATOM
      1 N1           7.9450    -0.8240     0.0570 n8         1 9E8      -1.004100
      2 C1           5.3610    -0.0980    -0.0390 ca         1 9E8      -0.269500
      3 C2           4.6890    -0.2160     1.1950 ca         1 9E8      -0.005500
      4 C3           3.3720    -0.7050     1.2340 ca         1 9E8      -0.127000
      5 C4           2.7150    -1.0820     0.0480 ca         1 9E8      -0.027300
      6 C5           3.3890    -0.9630    -1.1820 ca         1 9E8      -0.127000
      7 C6           4.7060    -0.4750    -1.2290 ca         1 9E8      -0.005500
      8 C7           0.2550    -0.4700    -0.0370 c3         1 9E8       0.117000
      9 C            1.2860    -1.6060     0.0930 c3         1 9E8      -0.058100
     10 C8          -2.2350    -0.1750    -0.0870 c          1 9E8       0.662100
     11 C10         -6.5820     1.1310    -0.2560 ca         1 9E8      -0.072000
     12 C11         -5.2090     0.8240    -0.2140 ca         1 9E8      -0.151000
     13 C12         -4.7800    -0.5140    -0.0680 ca         1 9E8       0.004000
     14 C13         -7.5360     0.1060    -0.1530 ca         1 9E8       0.087000
     15 C14         -5.7480    -1.5320     0.0340 ca         1 9E8      -0.151000
     16 C15         -7.1200    -1.2260    -0.0080 ca         1 9E8      -0.072000
     17 O8          -2.1540     1.0380    -0.2160 o          1 9E8      -0.617100
     18 N8          -3.4120    -0.9020    -0.0170 ns         1 9E8      -0.162000
     19 Cl1         -9.2510     0.4930    -0.2060 cl         1 9E8      -0.205000
     20 N7          -1.1200    -0.9730     0.0070 ns         1 9E8      -0.525900
     21 S            7.0440     0.5270    -0.0940 sy         1 9E8       1.123600
     22 O1           7.3600     1.2860     1.1140 o          1 9E8      -0.542000
     23 O2           7.3780     1.0140    -1.4310 o          1 9E8      -0.542000
     24 H1           8.5620    -0.7230    -0.7450 hn         1 9E8       0.473500
     25 H2           8.5520    -0.5550     0.8280 hn         1 9E8       0.473500
     26 H3           5.1820     0.0680     2.1230 ha         1 9E8       0.139000
     27 H4           2.8620    -0.7900     2.1900 ha         1 9E8       0.120000
     28 H5           2.8920    -1.2490    -2.1060 ha         1 9E8       0.120000
     29 H6           5.2120    -0.3930    -2.1900 ha         1 9E8       0.139000
     30 H7           0.3970     0.2490     0.7800 h1         1 9E8       0.060700
     31 H8           0.4110     0.0570    -0.9880 h1         1 9E8       0.060700
     32 H9           1.1250    -2.3320    -0.7120 hc         1 9E8       0.055200
     33 H10          1.1120    -2.1430     1.0340 hc         1 9E8       0.055200
     34 H12         -4.4990     1.6410    -0.2960 ha         1 9E8       0.132500
     35 H13         -5.4380    -2.5700     0.1470 ha         1 9E8       0.132500
     36 H14         -7.8600    -2.0190     0.0710 ha         1 9E8       0.129500
     37 H15         -3.2790    -1.8980     0.0910 hn         1 9E8       0.144000
     38 H16         -1.2700    -1.9690     0.1120 hn         1 9E8       0.306500
     39 H11         -6.9060     2.1620    -0.3680 ha         1 9E8       0.129500
@<TRIPOS>BOND
     1     1    21 1   
     2     1    24 1   
     3     1    25 1   
     4     2     3 ar  
     5     2     7 ar  
     6     2    21 1   
     7     3     4 ar  
     8     3    26 1   
     9     4     5 ar  
    10     4    27 1   
    11     5     6 ar  
    12     5     9 1   
    13     6     7 ar  
    14     6    28 1   
    15     7    29 1   
    16     8     9 1   
    17     8    20 1   
    18     8    30 1   
    19     8    31 1   
    20     9    32 1   
    21     9    33 1   
    22    10    17 2   
    23    10    18 1   
    24    10    20 1   
    25    11    12 ar  
    26    11    14 ar  
    27    11    39 1   
    28    12    13 ar  
    29    12    34 1   
    30    13    15 ar  
    31    13    18 1   
    32    14    16 ar  
    33    14    19 1   
    34    15    16 ar  
    35    15    35 1   
    36    16    36 1   
    37    18    37 1   
    38    20    38 1   
    39    21    22 2   
    40    21    23 2   
@<TRIPOS>SUBSTRUCTURE
     1 9E8         1 TEMP              0 ****  ****    0 ROOT
