@<TRIPOS>MOLECULE
9E9
   11    11     1     0     0
SMALL
No Charge or Current Charge


@<TRIPOS>ATOM
      1 C1          -2.4500    -0.0360    -0.0240 c          1 9E9       0.733600
      2 C2          -1.0010     0.2660    -0.0270 cc         1 9E9      -0.211600
      3 C5           1.5010     0.2420    -0.0450 cc         1 9E9      -0.091000
      4 C6           0.9820     1.5100    -0.0100 cd         1 9E9      -0.133000
      5 C7          -0.4410     1.5280     0.0010 cd         1 9E9      -0.162000
      6 O8          -3.2450     0.8940     0.0050 o          1 9E9      -0.708000
      7 O9          -2.8040    -1.2050    -0.0510 o          1 9E9      -0.708000
      8 S1           0.2360    -0.9870    -0.0670 ss         1 9E9       0.246000
      9 Cl1          3.1910    -0.1570    -0.0670 cl         1 9E9      -0.216000
     10 H6           1.5940     2.4060     0.0080 ha         1 9E9       0.113000
     11 H7          -1.0250     2.4430     0.0280 ha         1 9E9       0.137000
@<TRIPOS>BOND
     1     1     2 1   
     2     1     6 1   
     3     1     7 1   
     4     2     5 2   
     5     2     8 1   
     6     3     4 2   
     7     3     8 1   
     8     3     9 1   
     9     4     5 1   
    10     4    10 1   
    11     5    11 1   
@<TRIPOS>SUBSTRUCTURE
     1 9E9         1 TEMP              0 ****  ****    0 ROOT
