@<TRIPOS>MOLECULE
9E9
   11    11     1     0     0
SMALL
abcg2


@<TRIPOS>ATOM
      1 C1          -2.4520    -0.0650    -0.0250 c          1 9E9       0.733600
      2 C2          -1.0040     0.3370    -0.0250 cc         1 9E9      -0.211600
      3 C5           1.4520     0.2470    -0.0450 cc         1 9E9      -0.091000
      4 C6           0.9940     1.5290    -0.0090 cd         1 9E9      -0.133000
      5 C7          -0.4250     1.5700     0.0030 cd         1 9E9      -0.162000
      6 O8          -3.2840     0.8570    -0.0010 o          1 9E9      -0.708000
      7 O9          -2.6560    -1.2940    -0.0490 o          1 9E9      -0.708000
      8 S1           0.1830    -0.9120    -0.0660 ss         1 9E9       0.246000
      9 CL1          3.0900    -0.2490    -0.0700 cl         1 9E9      -0.216000
     10 H6           1.6370     2.3970     0.0090 ha         1 9E9       0.113000
     11 H7          -0.9970     2.4870     0.0310 ha         1 9E9       0.137000
@<TRIPOS>BOND
     1     1     2 1   
     2     1     6 1   
     3     1     7 1   
     4     2     5 2   
     5     2     8 1   
     6     3     4 2   
     7     3     8 1   
     8     3     9 1   
     9     4     5 1   
    10     4    10 1   
    11     5    11 1   
@<TRIPOS>SUBSTRUCTURE
     1 9E9         1 TEMP              0 ****  ****    0 ROOT
