@<TRIPOS>MOLECULE
9EA
  102   109     1     0     0
SMALL
No Charge or Current Charge


@<TRIPOS>ATOM
      1 C4          -5.5600     5.0870    -0.3910 ca         1 9EA      -0.051000
      2 C5           6.1910     2.2480    -0.7290 ca         1 9EA      -0.185000
      3 C6          -7.7010     3.4280     2.1560 ca         1 9EA      -0.122000
      4 C7          -5.3200     1.9670     2.4620 ca         1 9EA      -0.065000
      5 C8           0.9620    -0.4370    -2.1100 ca         1 9EA      -0.071000
      6 C10          2.2570    -2.4860    -2.3570 ca         1 9EA      -0.112000
      7 C13         -0.9370    -1.9160     1.0240 ca         1 9EA      -0.114000
      8 C15          0.0840    -4.1730    -0.2950 ca         1 9EA      -0.117000
      9 C17          6.9840     2.7530     0.3150 ca         1 9EA       0.326900
     10 C20         -5.3810     3.0060     1.5050 ca         1 9EA      -0.069000
     11 C21          1.6290    -0.2150    -0.8970 ca         1 9EA      -0.078800
     12 C22          2.8960    -2.2720    -1.1120 ca         1 9EA      -0.026000
     13 C24          5.4120     0.5370     0.7840 ca         1 9EA      -0.147300
     14 C26          2.5810    -1.0750    -0.4140 ca         1 9EA      -0.047200
     15 C28          0.6730    -3.7360     0.9010 ca         1 9EA       0.109100
     16 C1          -7.6310     2.3900     3.0990 ca         1 9EA      -0.104000
     17 C2          -6.4410     1.6620     3.2510 ca         1 9EA      -0.144000
     18 C3           1.2990    -1.5790    -2.8530 ca         1 9EA      -0.159000
     19 C9          -6.6660     4.7750     0.4130 ca         1 9EA      -0.157000
     20 C11          5.3900     1.1190    -0.4970 ca         1 9EA      -0.063000
     21 C12         -0.9960    -3.4610    -0.8490 ca         1 9EA      -0.114000
     22 C14         -4.3650     4.3630    -0.2560 ca         1 9EA      -0.226000
     23 C16          0.1590    -2.6090     1.5670 ca         1 9EA      -0.117000
     24 C18          6.2380     1.1120     1.7720 ca         1 9EA       0.369900
     25 C19         -6.5820     3.7390     1.3600 ca         1 9EA      -0.005000
     26 C23          3.8050    -3.3140    -0.6120 cc         1 9EA      -0.109000
     27 C25          1.4620     0.8640     0.0350 cc         1 9EA      -0.158400
     28 C27         -1.5130    -2.3260    -0.1920 ca         1 9EA       0.244000
     29 C29         -4.2670     3.3170     0.6890 ca         1 9EA       0.180100
     30 C30          2.3460     0.5970     1.0940 cd         1 9EA      -0.073300
     31 C31          3.9490    -3.9120     0.6630 cc         1 9EA       0.241300
     32 C32          4.8850    -3.7110    -1.3510 cd         1 9EA      -0.145300
     33 C33          2.4870     1.4100     2.3600 c          1 9EA       0.722200
     34 C34         -5.6770     1.1400    -2.1090 c          1 9EA       0.608100
     35 C35         -3.9310    -1.6850    -0.0700 c6         1 9EA       0.180800
     36 C36         -2.7220    -1.3610    -2.1760 c6         1 9EA       0.180800
     37 C37         -4.7760    -0.4040    -0.3160 c6         1 9EA       0.088500
     38 C38         -3.4860    -0.0390    -2.4560 c6         1 9EA       0.088500
     39 C39          5.3420    -3.3030    -2.7340 c3         1 9EA      -0.028800
     40 C40         -7.0110     1.2720    -1.3700 c3         1 9EA      -0.179100
     41 C42          0.5000     2.0150    -0.1640 c3         1 9EA       0.025800
     42 C44          2.9500    -3.7790     1.7960 c3         1 9EA       0.135300
     43 C45         -0.9040     1.7350     0.4040 c3         1 9EA      -0.089400
     44 C46         -1.9140     2.8510     0.0870 c3         1 9EA       0.163600
     45 N47          7.0160     2.2000     1.5480 nb         1 9EA      -0.675000
     46 N48          5.0100    -4.6930     0.7510 nd         1 9EA      -0.523800
     47 N49          3.1400    -0.5350     0.7470 na         1 9EA      -0.068700
     48 N50          5.5910    -4.5750    -0.5030 na         1 9EA       0.126800
     49 N51         -2.6050    -1.6070    -0.7210 nh         1 9EA      -0.774400
     50 N52         -4.7840     0.1150    -1.7240 n          1 9EA      -0.403800
     51 O53          3.2860     1.0360     3.2070 o          1 9EA      -0.706500
     52 O54         -5.4320     1.8630    -3.0670 o          1 9EA      -0.621100
     53 O55          1.7780     2.3900     2.5430 o          1 9EA      -0.706500
     54 O56          1.7240    -4.4480     1.4290 os         1 9EA      -0.362100
     55 O57         -3.1120     2.5700     0.8260 os         1 9EA      -0.343100
     56 H1          -5.6310     5.8890    -1.1230 ha         1 9EA       0.106000
     57 H2           6.2020     2.7290    -1.7030 ha         1 9EA       0.106000
     58 H3          -8.6260     3.9890     2.0430 ha         1 9EA       0.107000
     59 H4          -4.4070     1.3920     2.5990 ha         1 9EA       0.136000
     60 H5           0.2070     0.2550    -2.4730 ha         1 9EA       0.101000
     61 H6           2.4690    -3.3890    -2.9240 ha         1 9EA       0.093000
     62 H7          -1.3380    -1.0530     1.5460 ha         1 9EA       0.114000
     63 H8           0.4750    -5.0510    -0.8020 ha         1 9EA       0.122500
     64 H9           7.6150     3.6270     0.1590 h4         1 9EA       0.001100
     65 H10         -8.4980     2.1520     3.7110 ha         1 9EA       0.104000
     66 H11         -6.3860     0.8590     3.9840 ha         1 9EA       0.110000
     67 H12          0.8020    -1.7770    -3.7990 ha         1 9EA       0.092000
     68 H13         -7.5880     5.3390     0.2980 ha         1 9EA       0.108000
     69 H14          4.7690     0.7080    -1.2910 ha         1 9EA       0.120000
     70 H15         -1.4380    -3.8010    -1.7800 ha         1 9EA       0.114000
     71 H16         -3.5290     4.6260    -0.8970 ha         1 9EA       0.122000
     72 H17          0.5900    -2.2780     2.5080 ha         1 9EA       0.122500
     73 H18          6.2830     0.6860     2.7740 h4         1 9EA       0.047100
     74 H19         -3.8220    -1.8330     1.0150 h1         1 9EA       0.040450
     75 H20         -4.4810    -2.5530    -0.4630 h1         1 9EA       0.040450
     76 H21         -3.2590    -2.1930    -2.6540 h1         1 9EA       0.040450
     77 H22         -1.7280    -1.3010    -2.6400 h1         1 9EA       0.040450
     78 H23         -5.8000    -0.6130     0.0180 h1         1 9EA       0.058450
     79 H24         -4.3810     0.3880     0.3310 h1         1 9EA       0.058450
     80 H25         -2.8350     0.8020    -2.1800 h1         1 9EA       0.058450
     81 H26         -3.6630     0.0330    -3.5380 h1         1 9EA       0.058450
     82 H27          6.4330    -3.3450    -2.8290 hc         1 9EA       0.048367
     83 H28          4.9150    -3.9630    -3.4990 hc         1 9EA       0.048367
     84 H29          5.0390    -2.2760    -2.9690 hc         1 9EA       0.048367
     85 H30         -6.8280     1.4440    -0.3050 hc         1 9EA       0.058700
     86 H31         -7.6510     2.0540    -1.7940 hc         1 9EA       0.058700
     87 H32         -7.5140     0.2990    -1.3690 hc         1 9EA       0.058700
     88 H33          7.6660    -4.5830    -0.8700 h1         1 9EA       0.049700
     89 H34          7.0430    -6.0440    -0.0460 h1         1 9EA       0.049700
     90 H35          6.7280    -5.8000    -1.7880 h1         1 9EA       0.049700
     91 H36          0.8980     2.9400     0.2660 hc         1 9EA       0.037700
     92 H37          0.4060     2.2250    -1.2360 hc         1 9EA       0.037700
     93 H38          5.0120    -1.5270     0.5480 h1         1 9EA       0.083200
     94 H39          4.6430    -0.9410     2.1670 h1         1 9EA       0.083200
     95 H40          3.3770    -4.2580     2.6860 h1         1 9EA       0.067700
     96 H41          2.7850    -2.7270     2.0470 h1         1 9EA       0.067700
     97 H42         -1.2800     0.7960    -0.0170 hc         1 9EA       0.073700
     98 H43         -0.8320     1.6020     1.4890 hc         1 9EA       0.073700
     99 H44         -1.5020     3.8250     0.3820 h1         1 9EA       0.030200
    100 H45         -2.1090     2.8600    -0.9930 h1         1 9EA       0.030200
    101 C43          4.5710    -0.6950     1.1000 c3         1 9EA       0.114900
    102 C41          6.8340    -5.2960    -0.8200 c3         1 9EA       0.075900
@<TRIPOS>BOND
     1     1    19 ar  
     2     1    22 ar  
     3     1    56 1   
     4     2     9 ar  
     5     2    20 ar  
     6     2    57 1   
     7     3    16 ar  
     8     3    25 ar  
     9     3    58 1   
    10     4    10 ar  
    11     4    17 ar  
    12     4    59 1   
    13     5    11 ar  
    14     5    18 ar  
    15     5    60 1   
    16     6    12 ar  
    17     6    18 ar  
    18     6    61 1   
    19     7    23 ar  
    20     7    28 ar  
    21     7    62 1   
    22     8    15 ar  
    23     8    21 ar  
    24     8    63 1   
    25     9    45 ar  
    26     9    64 1   
    27    10    25 ar  
    28    10    29 ar  
    29    11    14 ar  
    30    11    27 1   
    31    12    14 ar  
    32    12    26 1   
    33    13    20 ar  
    34    13    24 ar  
    35    13   101 1   
    36    14    47 1   
    37    15    23 ar  
    38    15    54 1   
    39    16    17 ar  
    40    16    65 1   
    41    17    66 1   
    42    18    67 1   
    43    19    25 ar  
    44    19    68 1   
    45    20    69 1   
    46    21    28 ar  
    47    21    70 1   
    48    22    29 ar  
    49    22    71 1   
    50    23    72 1   
    51    24    45 ar  
    52    24    73 1   
    53    26    31 1   
    54    26    32 2   
    55    27    30 2   
    56    27    41 1   
    57    28    49 1   
    58    29    55 1   
    59    30    33 1   
    60    30    47 1   
    61    31    42 1   
    62    31    46 2   
    63    32    39 1   
    64    32    48 1   
    65    33    51 1   
    66    33    53 1   
    67    34    40 1   
    68    34    50 1   
    69    34    52 2   
    70    35    37 1   
    71    35    49 1   
    72    35    74 1   
    73    35    75 1   
    74    36    38 1   
    75    36    49 1   
    76    36    76 1   
    77    36    77 1   
    78    37    50 1   
    79    37    78 1   
    80    37    79 1   
    81    38    50 1   
    82    38    80 1   
    83    38    81 1   
    84    39    82 1   
    85    39    83 1   
    86    39    84 1   
    87    40    85 1   
    88    40    86 1   
    89    40    87 1   
    90    41    43 1   
    91    41    91 1   
    92    41    92 1   
    93    42    54 1   
    94    42    95 1   
    95    42    96 1   
    96    43    44 1   
    97    43    97 1   
    98    43    98 1   
    99    44    55 1   
   100    44    99 1   
   101    44   100 1   
   102    46    48 1   
   103    47   101 1   
   104    48   102 1   
   105    88   102 1   
   106    89   102 1   
   107    90   102 1   
   108    93   101 1   
   109    94   101 1   
@<TRIPOS>SUBSTRUCTURE
     1 9EA         1 TEMP              0 ****  ****    0 ROOT
