@<TRIPOS>MOLECULE
9EA
  102   109     1     0     0
SMALL
abcg2


@<TRIPOS>ATOM
      1 C4          -5.4490     4.9110    -0.9130 ca         1 9EA      -0.051000
      2 C5           6.7700     1.2710    -0.5440 ca         1 9EA      -0.185000
      3 C6          -7.6150     3.6340     1.8090 ca         1 9EA      -0.122000
      4 C7          -5.1980     2.4170     2.4720 ca         1 9EA      -0.065000
      5 C8           1.2070    -0.3830    -2.4260 ca         1 9EA      -0.071000
      6 C10          2.6940    -2.2680    -2.6050 ca         1 9EA      -0.112000
      7 C13         -1.0380    -2.1140     0.9630 ca         1 9EA      -0.114000
      8 C15          0.0320    -3.6990    -1.0240 ca         1 9EA      -0.117000
      9 C17          7.1380     2.1520     0.4640 ca         1 9EA       0.326900
     10 C20         -5.2580     3.2410     1.3250 ca         1 9EA      -0.069000
     11 C21          1.6940    -0.1580    -1.1370 ca         1 9EA      -0.078800
     12 C22          3.1830    -2.1020    -1.3140 ca         1 9EA      -0.026000
     13 C24          5.2630     0.2470     1.0120 ca         1 9EA      -0.147300
     14 C26          2.6790    -1.0100    -0.5870 ca         1 9EA      -0.047200
     15 C28          0.5970    -3.7200     0.2410 ca         1 9EA       0.109100
     16 C1          -7.5340     2.8220     2.9070 ca         1 9EA      -0.104000
     17 C2          -6.3110     2.2100     3.2430 ca         1 9EA      -0.144000
     18 C3           1.7270    -1.4270    -3.1600 ca         1 9EA      -0.159000
     19 C9          -6.5600     4.7070    -0.1480 ca         1 9EA      -0.157000
     20 C11          5.8190     0.3050    -0.2620 ca         1 9EA      -0.063000
     21 C12         -1.0780    -2.9100    -1.2890 ca         1 9EA      -0.114000
     22 C14         -4.2200     4.2910    -0.6040 ca         1 9EA      -0.226000
     23 C16          0.0500    -2.9210     1.2410 ca         1 9EA      -0.117000
     24 C18          5.7050     1.1830     1.9400 ca         1 9EA       0.369900
     25 C19         -6.4860     3.8670     0.9900 ca         1 9EA      -0.005000
     26 C23          4.1310    -3.0950    -0.7910 cc         1 9EA      -0.109000
     27 C25          1.4130     0.8590    -0.1740 cc         1 9EA      -0.158400
     28 C27         -1.6320    -2.1010    -0.3000 ca         1 9EA       0.244000
     29 C29         -4.1230     3.4580     0.4840 ca         1 9EA       0.180100
     30 C30          2.1980     0.5940     0.9150 cd         1 9EA      -0.073300
     31 C31          3.9500    -3.9870     0.2880 cc         1 9EA       0.241300
     32 C32          5.3690    -3.4320    -1.3080 cd         1 9EA      -0.145300
     33 C33          2.2230     1.3430     2.2260 c          1 9EA       0.722200
     34 C34         -6.4150     0.5000    -1.4280 c          1 9EA       0.608100
     35 C35         -3.9180    -1.5590     0.2760 c6         1 9EA       0.180800
     36 C36         -3.1030    -0.9620    -1.8840 c6         1 9EA       0.180800
     37 C37         -4.8560    -0.3710     0.2880 c6         1 9EA       0.088500
     38 C38         -4.0470     0.2290    -1.9250 c6         1 9EA       0.088500
     39 C39          6.1260    -2.8550    -2.4490 c3         1 9EA      -0.028800
     40 C40         -7.5190     0.4360    -0.3990 c3         1 9EA      -0.179100
     41 C42          0.4240     1.9630    -0.3710 c3         1 9EA       0.025800
     42 C44          2.7680    -4.0950     1.1890 c3         1 9EA       0.135300
     43 C45         -0.8730     1.8060     0.4250 c3         1 9EA      -0.089400
     44 C46         -1.8590     2.8790     0.0140 c3         1 9EA       0.163600
     45 N47          6.6190     2.1130     1.6850 nb         1 9EA      -0.675000
     46 N48          4.9890    -4.7900     0.4210 nd         1 9EA      -0.523800
     47 N49          2.9650    -0.5420     0.6760 na         1 9EA      -0.068700
     48 N50          5.8340    -4.4470    -0.5470 na         1 9EA       0.126800
     49 N51         -2.7400    -1.2630    -0.5190 nh         1 9EA      -0.774400
     50 N52         -5.1990     0.0290    -1.0640 n          1 9EA      -0.403800
     51 O53          2.4920     0.6930     3.2560 o          1 9EA      -0.706500
     52 O54         -6.6250     0.9580    -2.5440 o          1 9EA      -0.621100
     53 O55          1.9360     2.5530     2.1670 o          1 9EA      -0.706500
     54 O56          1.6430    -4.5660     0.4560 os         1 9EA      -0.362100
     55 O57         -3.0110     2.7940     0.8410 os         1 9EA      -0.343100
     56 H1          -5.4970     5.5590    -1.7780 ha         1 9EA       0.106000
     57 H2           7.2230     1.3430    -1.5230 ha         1 9EA       0.106000
     58 H3          -8.5540     4.1100     1.5490 ha         1 9EA       0.107000
     59 H4          -4.2650     1.9450     2.7480 ha         1 9EA       0.136000
     60 H5           0.4400     0.2550    -2.8470 ha         1 9EA       0.101000
     61 H6           3.0600    -3.1080    -3.1840 ha         1 9EA       0.093000
     62 H7          -1.4270    -1.4690     1.7410 ha         1 9EA       0.114000
     63 H8           0.4640    -4.3030    -1.8110 ha         1 9EA       0.122500
     64 H9           7.8810     2.9190     0.2760 h4         1 9EA       0.001100
     65 H10         -8.4080     2.6520     3.5230 ha         1 9EA       0.104000
     66 H11         -6.2500     1.5750     4.1170 ha         1 9EA       0.110000
     67 H12          1.3700    -1.6190    -4.1650 ha         1 9EA       0.092000
     68 H13         -7.5000     5.1820    -0.3960 ha         1 9EA       0.108000
     69 H14          5.5140    -0.3960    -1.0300 ha         1 9EA       0.120000
     70 H15         -1.4950    -2.9290    -2.2870 ha         1 9EA       0.114000
     71 H16         -3.3700     4.4880    -1.2420 ha         1 9EA       0.122000
     72 H17          0.4690    -2.9110     2.2390 ha         1 9EA       0.122500
     73 H18          5.2890     1.1760     2.9430 h4         1 9EA       0.047100
     74 H19         -3.6310    -1.7760     1.3040 h1         1 9EA       0.040450
     75 H20         -4.4460    -2.4460    -0.1100 h1         1 9EA       0.040450
     76 H21         -3.5760    -1.8180    -2.3920 h1         1 9EA       0.040450
     77 H22         -2.2070    -0.6980    -2.4480 h1         1 9EA       0.040450
     78 H23         -5.7490    -0.6370     0.8480 h1         1 9EA       0.058450
     79 H24         -4.3690     0.4580     0.8080 h1         1 9EA       0.058450
     80 H25         -3.5090     1.1280    -1.6060 h1         1 9EA       0.058450
     81 H26         -4.3820     0.3910    -2.9460 h1         1 9EA       0.058450
     82 H27          7.1120    -2.4990    -2.1470 hc         1 9EA       0.048367
     83 H28          6.2690    -3.5810    -3.2520 hc         1 9EA       0.048367
     84 H29          5.5770    -2.0130    -2.8640 hc         1 9EA       0.048367
     85 H30         -7.2990     1.0820     0.4530 hc         1 9EA       0.058700
     86 H31         -8.4460     0.7780    -0.8530 hc         1 9EA       0.058700
     87 H32         -7.6760    -0.5730    -0.0180 hc         1 9EA       0.058700
     88 H33          7.8780    -4.5560    -0.0750 h1         1 9EA       0.049700
     89 H34          7.0380    -6.1040    -0.2700 h1         1 9EA       0.049700
     90 H35          7.4330    -5.1310    -1.6900 h1         1 9EA       0.049700
     91 H36          0.8800     2.9190    -0.1110 hc         1 9EA       0.037700
     92 H37          0.1770     2.0200    -1.4360 hc         1 9EA       0.037700
     93 H38          4.5830    -1.7660     1.1450 h1         1 9EA       0.083200
     94 H39          4.0200    -0.7350     2.4470 h1         1 9EA       0.083200
     95 H40          2.9810    -4.8010     1.9940 h1         1 9EA       0.067700
     96 H41          2.5540    -3.1260     1.6460 h1         1 9EA       0.067700
     97 H42         -1.3110     0.8220     0.2460 hc         1 9EA       0.073700
     98 H43         -0.6520     1.8860     1.4910 hc         1 9EA       0.073700
     99 H44         -1.4170     3.8790     0.0990 h1         1 9EA       0.030200
    100 H45         -2.1370     2.7340    -1.0360 h1         1 9EA       0.030200
    101 C43          4.2170    -0.7700     1.3810 c3         1 9EA       0.114900
    102 C41          7.1210    -5.0900    -0.6490 c3         1 9EA       0.075900
@<TRIPOS>BOND
     1     1    19 ar  
     2     1    22 ar  
     3     1    56 1   
     4     2     9 ar  
     5     2    20 ar  
     6     2    57 1   
     7     3    16 ar  
     8     3    25 ar  
     9     3    58 1   
    10     4    10 ar  
    11     4    17 ar  
    12     4    59 1   
    13     5    11 ar  
    14     5    18 ar  
    15     5    60 1   
    16     6    12 ar  
    17     6    18 ar  
    18     6    61 1   
    19     7    23 ar  
    20     7    28 ar  
    21     7    62 1   
    22     8    15 ar  
    23     8    21 ar  
    24     8    63 1   
    25     9    45 ar  
    26     9    64 1   
    27    10    25 ar  
    28    10    29 ar  
    29    11    14 ar  
    30    11    27 1   
    31    12    14 ar  
    32    12    26 1   
    33    13    20 ar  
    34    13    24 ar  
    35    13   101 1   
    36    14    47 1   
    37    15    23 ar  
    38    15    54 1   
    39    16    17 ar  
    40    16    65 1   
    41    17    66 1   
    42    18    67 1   
    43    19    25 ar  
    44    19    68 1   
    45    20    69 1   
    46    21    28 ar  
    47    21    70 1   
    48    22    29 ar  
    49    22    71 1   
    50    23    72 1   
    51    24    45 ar  
    52    24    73 1   
    53    26    31 1   
    54    26    32 2   
    55    27    30 2   
    56    27    41 1   
    57    28    49 1   
    58    29    55 1   
    59    30    33 1   
    60    30    47 1   
    61    31    42 1   
    62    31    46 2   
    63    32    39 1   
    64    32    48 1   
    65    33    51 1   
    66    33    53 1   
    67    34    40 1   
    68    34    50 1   
    69    34    52 2   
    70    35    37 1   
    71    35    49 1   
    72    35    74 1   
    73    35    75 1   
    74    36    38 1   
    75    36    49 1   
    76    36    76 1   
    77    36    77 1   
    78    37    50 1   
    79    37    78 1   
    80    37    79 1   
    81    38    50 1   
    82    38    80 1   
    83    38    81 1   
    84    39    82 1   
    85    39    83 1   
    86    39    84 1   
    87    40    85 1   
    88    40    86 1   
    89    40    87 1   
    90    41    43 1   
    91    41    91 1   
    92    41    92 1   
    93    42    54 1   
    94    42    95 1   
    95    42    96 1   
    96    43    44 1   
    97    43    97 1   
    98    43    98 1   
    99    44    55 1   
   100    44    99 1   
   101    44   100 1   
   102    46    48 1   
   103    47   101 1   
   104    48   102 1   
   105    88   102 1   
   106    89   102 1   
   107    90   102 1   
   108    93   101 1   
   109    94   101 1   
@<TRIPOS>SUBSTRUCTURE
     1 9EA         1 TEMP              0 ****  ****    0 ROOT
