@<TRIPOS>MOLECULE
9EB
   38    39     1     0     0
SMALL
bcc


@<TRIPOS>ATOM
      1 C1           2.6770     0.1640    -0.2070 ca         1 9EB      -0.270500
      2 C2           1.4760     0.7960     0.0680 ca         1 9EB       0.019000
      3 C3           0.3740     0.0710     0.5050 ca         1 9EB      -0.168600
      4 C4           0.5020    -1.3020     0.6850 ca         1 9EB      -0.049000
      5 C5           1.7020    -1.9410     0.4210 ca         1 9EB      -0.158000
      6 C6           2.7910    -1.2150    -0.0290 ca         1 9EB       0.136400
      7 C9          -3.3170     0.7030     1.1340 c3         1 9EB       0.173000
      8 C10         -4.3760    -0.0320     0.3440 ca         1 9EB      -0.146300
      9 C11         -4.5190     0.2310    -1.0260 ca         1 9EB       0.155100
     10 C12         -5.4760    -0.4460    -1.7770 ca         1 9EB      -0.229000
     11 C13         -5.2010    -0.9910     0.9170 ca         1 9EB      -0.082000
     12 C14         -6.2880    -1.3970    -1.1770 ca         1 9EB      -0.076000
     13 C15         -6.1550    -1.6760     0.1740 ca         1 9EB      -0.171000
     14 O1           4.5970     0.5490    -1.9840 o          1 9EB      -0.609300
     15 O2           3.5410     2.5250    -0.8670 o          1 9EB      -0.609300
     16 C16         -3.5440     0.7120     2.6410 c3         1 9EB      -0.107100
     17 CL6          4.2600    -2.0550    -0.3270 cl         1 9EB      -0.063400
     18 S            4.0340     1.1580    -0.7930 sy         1 9EB       1.292200
     19 N1           5.1300     0.9740     0.4140 n8         1 9EB      -0.918700
     20 C           -0.8820     0.8330     0.8060 c          1 9EB       0.683700
     21 O7          -0.8380     2.0360     1.0250 o          1 9EB      -0.598100
     22 N8          -2.0180     0.1250     0.8090 ns         1 9EB      -0.561900
     23 O11         -3.7060     1.1560    -1.5730 oh         1 9EB      -0.486100
     24 H1           1.3900     1.8660    -0.0580 ha         1 9EB       0.188000
     25 H2          -0.3160    -1.9010     1.0630 ha         1 9EB       0.136000
     26 H3           1.7920    -3.0080     0.5740 ha         1 9EB       0.152000
     27 H4          -3.2950     1.7410     0.7980 h1         1 9EB       0.093700
     28 H5          -5.5850    -0.2290    -2.8340 ha         1 9EB       0.134000
     29 H6          -5.1070    -1.2110     1.9730 ha         1 9EB       0.135000
     30 H7          -7.0290    -1.9140    -1.7740 ha         1 9EB       0.133000
     31 H8          -6.7840    -2.4160     0.6490 ha         1 9EB       0.137000
     32 H9          -3.4670    -0.2850     3.0730 hc         1 9EB       0.044033
     33 H10         -2.7960     1.3420     3.1200 hc         1 9EB       0.044033
     34 H11         -4.5270     1.1180     2.8820 hc         1 9EB       0.044033
     35 H12          6.0850     0.9300     0.0770 hn         1 9EB       0.430800
     36 H13          5.0200     1.6420     1.1680 hn         1 9EB       0.430800
     37 H14         -2.0000    -0.8510     0.5630 hn         1 9EB       0.314500
     38 H15         -3.9210     1.2830    -2.5040 ho         1 9EB       0.429000
@<TRIPOS>BOND
     1     1     2 ar  
     2     1     6 ar  
     3     1    18 1   
     4     2     3 ar  
     5     2    24 1   
     6     3     4 ar  
     7     3    20 1   
     8     4     5 ar  
     9     4    25 1   
    10     5     6 ar  
    11     5    26 1   
    12     6    17 1   
    13     7     8 1   
    14     7    16 1   
    15     7    22 1   
    16     7    27 1   
    17     8     9 ar  
    18     8    11 ar  
    19     9    10 ar  
    20     9    23 1   
    21    10    12 ar  
    22    10    28 1   
    23    11    13 ar  
    24    11    29 1   
    25    12    13 ar  
    26    12    30 1   
    27    13    31 1   
    28    14    18 2   
    29    15    18 2   
    30    16    32 1   
    31    16    33 1   
    32    16    34 1   
    33    18    19 1   
    34    19    35 1   
    35    19    36 1   
    36    20    21 2   
    37    20    22 1   
    38    22    37 1   
    39    23    38 1   
@<TRIPOS>SUBSTRUCTURE
     1 9EB         1 TEMP              0 ****  ****    0 ROOT
