@<TRIPOS>MOLECULE
9EB
   38    39     1     0     0
SMALL
No Charge or Current Charge


@<TRIPOS>ATOM
      1 C1           2.8930     0.1610    -0.0430 ca         1 9EB      -0.270500
      2 C2           1.6900     0.8680     0.1760 ca         1 9EB       0.037000
      3 C3           0.4470     0.1970     0.2310 ca         1 9EB      -0.168600
      4 C4           0.4270    -1.2070     0.0650 ca         1 9EB      -0.031000
      5 C5           1.6230    -1.9110    -0.1460 ca         1 9EB      -0.140000
      6 C6           2.8550    -1.2410    -0.2010 ca         1 9EB       0.228000
      7 C9          -3.3160     0.8890     0.7280 c3         1 9EB       0.173000
      8 C10         -4.4030    -0.0500     0.1980 ca         1 9EB      -0.146300
      9 C11         -5.2720     0.3370    -0.8490 ca         1 9EB       0.155100
     10 C12         -6.2580    -0.5470    -1.3170 ca         1 9EB      -0.211000
     11 C13         -4.5460    -1.3390     0.7600 ca         1 9EB      -0.064000
     12 C14         -6.3910    -1.8250    -0.7500 ca         1 9EB      -0.058000
     13 C15         -5.5340    -2.2190     0.2880 ca         1 9EB      -0.153000
     14 O1           5.3020     0.5890    -1.1730 o          1 9EB      -0.538500
     15 O2           4.1930     2.5070     0.0900 o          1 9EB      -0.538500
     16 C16         -3.5270     1.2310     2.2180 c3         1 9EB      -0.107100
     17 Cl6          4.2990    -2.2260    -0.4450 cl         1 9EB      -0.155000
     18 S            4.4320     1.0800    -0.1080 sy         1 9EB       1.150600
     19 N1           5.2080     0.6240     1.2510 n8         1 9EB      -1.029100
     20 C           -0.8130     1.0010     0.4660 c          1 9EB       0.616700
     21 O7          -0.7880     2.2150     0.6110 o          1 9EB      -0.598100
     22 N8          -1.9970     0.2990     0.5050 ns         1 9EB      -0.494900
     23 O11         -5.1750     1.5710    -1.4230 oh         1 9EB      -0.525100
     24 H1           1.7150     1.9500     0.3040 ha         1 9EB       0.170000
     25 H2          -0.5010    -1.7710     0.1000 ha         1 9EB       0.118000
     26 H3           1.5960    -2.9910    -0.2660 ha         1 9EB       0.134000
     27 H4          -3.3500     1.8360     0.1730 h1         1 9EB       0.093700
     28 H5          -6.9280    -0.2510    -2.1210 ha         1 9EB       0.116000
     29 H6          -3.8910    -1.6630     1.5660 ha         1 9EB       0.117000
     30 H7          -7.1560    -2.5080    -1.1150 ha         1 9EB       0.115000
     31 H8          -5.6350    -3.2080     0.7280 ha         1 9EB       0.119000
     32 H9          -3.4320     0.3390     2.8480 hc         1 9EB       0.044033
     33 H10         -2.7910     1.9680     2.5570 hc         1 9EB       0.044033
     34 H11         -4.5260     1.6560     2.3720 hc         1 9EB       0.044033
     35 H12          6.0630     0.2500     0.8460 hn         1 9EB       0.486000
     36 H13          5.5160     1.5310     1.5950 hn         1 9EB       0.486000
     37 H14         -1.9460    -0.6980     0.3540 hn         1 9EB       0.314500
     38 H15         -5.8590     1.6410    -2.1210 ho         1 9EB       0.468000
@<TRIPOS>BOND
     1     1     2 ar  
     2     1     6 ar  
     3     1    18 1   
     4     2     3 ar  
     5     2    24 1   
     6     3     4 ar  
     7     3    20 1   
     8     4     5 ar  
     9     4    25 1   
    10     5     6 ar  
    11     5    26 1   
    12     6    17 1   
    13     7     8 1   
    14     7    16 1   
    15     7    22 1   
    16     7    27 1   
    17     8     9 ar  
    18     8    11 ar  
    19     9    10 ar  
    20     9    23 1   
    21    10    12 ar  
    22    10    28 1   
    23    11    13 ar  
    24    11    29 1   
    25    12    13 ar  
    26    12    30 1   
    27    13    31 1   
    28    14    18 2   
    29    15    18 2   
    30    16    32 1   
    31    16    33 1   
    32    16    34 1   
    33    18    19 1   
    34    19    35 1   
    35    19    36 1   
    36    20    21 2   
    37    20    22 1   
    38    22    37 1   
    39    23    38 1   
@<TRIPOS>SUBSTRUCTURE
     1 9EB         1 TEMP              0 ****  ****    0 ROOT
