@<TRIPOS>MOLECULE
9EC
   49    53     1     0     0
SMALL
bcc


@<TRIPOS>ATOM
      1 C10         -3.3490    -0.2090    -0.1060 ca         1 9EC       0.026000
      2 C11         -3.3000     1.2010     0.2880 cc         1 9EC      -0.038100
      3 C12         -4.2480     2.1520     0.0220 cd         1 9EC      -0.120000
      4 C13         -3.9610     3.4100     0.6080 cd         1 9EC      -0.142000
      5 C14         -2.7990     3.4000     1.3180 cc         1 9EC      -0.104100
      6 C02          0.0630    -0.7920     0.4010 c          1 9EC       0.751100
      7 C04         -2.2110    -0.9610    -0.4270 ca         1 9EC       0.025600
      8 C05         -2.3350    -2.2930    -0.8020 ca         1 9EC      -0.089000
      9 C06         -3.5740    -2.9080    -0.8640 ca         1 9EC      -0.154000
     10 C07         -4.6880    -2.1510    -0.5570 ca         1 9EC       0.154900
     11 C09         -4.5990    -0.8280    -0.1840 ca         1 9EC      -0.151000
     12 C17          2.3240    -0.3600     0.9780 c6         1 9EC       0.170100
     13 C18          3.0530    -1.5550     0.3300 c6         1 9EC      -0.118400
     14 C19          4.0590    -1.1480    -0.7420 c5         1 9EC       0.154500
     15 C20          3.2870    -0.3490    -1.7730 cx         1 9EC       0.056100
     16 C21          3.3460     1.0430    -1.3680 cx         1 9EC       0.056100
     17 C26          4.1520     1.0980    -0.0860 c5         1 9EC       0.154500
     18 C27          3.1600     0.9300     1.0630 c6         1 9EC      -0.118400
     19 F08         -5.8990    -2.7230    -0.6130 f          1 9EC      -0.126900
     20 N03         -0.9370    -0.3600    -0.4040 ns         1 9EC      -0.473100
     21 N23          5.0350    -0.1360    -0.1580 n4         1 9EC      -0.630800
     22 O01         -0.0100    -1.7270     1.1650 o          1 9EC      -0.556000
     23 O16          1.1450    -0.0270     0.2340 os         1 9EC      -0.454900
     24 O22          4.0150     0.5960    -2.5310 op         1 9EC      -0.346600
     25 S15         -2.0400     1.8690     1.2670 ss         1 9EC      -0.110800
     26 H37         -5.1220     1.9580    -0.5850 ha         1 9EC       0.162000
     27 H38         -4.5870     4.2830     0.4980 ha         1 9EC       0.165000
     28 H39         -2.3410     4.2140     1.8580 h4         1 9EC       0.173000
     29 H34         -1.4500    -2.8550    -1.0690 ha         1 9EC       0.141000
     30 H35         -3.6680    -3.9460    -1.1520 ha         1 9EC       0.164000
     31 H36         -5.4970    -0.2840     0.0780 ha         1 9EC       0.165000
     32 H28          2.0340    -0.6430     1.9900 h1         1 9EC       0.102700
     33 H40          3.5360    -2.1590     1.0970 hc         1 9EC       0.098700
     34 H41          2.3350    -2.2300    -0.1370 hc         1 9EC       0.098700
     35 H29          4.6210    -2.0010    -1.1220 hx         1 9EC       0.124700
     36 H30          2.4340    -0.8190    -2.2500 h1         1 9EC       0.158700
     37 H31          2.5440     1.7610    -1.5000 h1         1 9EC       0.158700
     38 H43          6.7340    -0.9040    -1.1350 hx         1 9EC       0.098700
     39 H42          6.0090     0.4750    -1.9780 hx         1 9EC       0.098700
     40 H44          6.9270     0.7350    -0.4850 hx         1 9EC       0.098700
     41 H45          6.1720     0.2910     1.5570 hx         1 9EC       0.098700
     42 H46          4.8230    -0.7960     1.8880 hx         1 9EC       0.098700
     43 H47          6.2370    -1.3990     1.0200 hx         1 9EC       0.098700
     44 H32          4.7850     1.9760     0.0420 hx         1 9EC       0.124700
     45 H49          2.4920     1.7920     1.0630 hc         1 9EC       0.098700
     46 H48          3.6790     0.9730     2.0190 hc         1 9EC       0.098700
     47 H33         -0.7790     0.4610    -0.9700 hn         1 9EC       0.341500
     48 C24          6.2560     0.0640    -1.0130 c3         1 9EC       0.108100
     49 C25          5.5890    -0.5400     1.1690 c3         1 9EC       0.108100
@<TRIPOS>BOND
     1     1     2 1   
     2     1     7 ar  
     3     1    11 ar  
     4     2     3 2   
     5     2    25 1   
     6     3     4 1   
     7     3    26 1   
     8     4     5 2   
     9     4    27 1   
    10     5    25 1   
    11     5    28 1   
    12     6    20 1   
    13     6    22 2   
    14     6    23 1   
    15     7     8 ar  
    16     7    20 1   
    17     8     9 ar  
    18     8    29 1   
    19     9    10 ar  
    20     9    30 1   
    21    10    11 ar  
    22    10    19 1   
    23    11    31 1   
    24    12    13 1   
    25    12    18 1   
    26    12    23 1   
    27    12    32 1   
    28    13    14 1   
    29    13    33 1   
    30    13    34 1   
    31    14    15 1   
    32    14    21 1   
    33    14    35 1   
    34    15    16 1   
    35    15    24 1   
    36    15    36 1   
    37    16    17 1   
    38    16    24 1   
    39    16    37 1   
    40    17    18 1   
    41    17    21 1   
    42    17    44 1   
    43    18    45 1   
    44    18    46 1   
    45    20    47 1   
    46    21    48 1   
    47    21    49 1   
    48    38    48 1   
    49    39    48 1   
    50    40    48 1   
    51    41    49 1   
    52    42    49 1   
    53    43    49 1   
@<TRIPOS>SUBSTRUCTURE
     1 9EC         1 TEMP              0 ****  ****    0 ROOT
