@<TRIPOS>MOLECULE
9EC
   49    53     1     0     0
SMALL
No Charge or Current Charge


@<TRIPOS>ATOM
      1 C10         -3.3440    -0.2570    -0.0660 ca         1 9EC       0.026000
      2 C11         -3.0260     1.1720    -0.0430 cc         1 9EC      -0.183000
      3 C12         -3.3310     1.9820    -1.1060 cd         1 9EC      -0.102000
      4 C13         -2.9570     3.3350    -0.8810 cd         1 9EC      -0.124000
      5 C14         -2.3780     3.5520     0.3470 cc         1 9EC      -0.231000
      6 C02          0.1340    -1.4730     0.7910 c          1 9EC       0.635100
      7 C04         -2.3530    -1.2370     0.1910 ca         1 9EC      -0.067000
      8 C05         -2.7100    -2.6060     0.1640 ca         1 9EC      -0.071000
      9 C06         -4.0340    -2.9890    -0.1130 ca         1 9EC      -0.136000
     10 C07         -5.0050    -2.0130    -0.3690 ca         1 9EC       0.190000
     11 C09         -4.6640    -0.6550    -0.3490 ca         1 9EC      -0.133000
     12 C17          2.4970    -0.9760     1.2020 c6         1 9EC       0.193300
     13 C18          3.1680    -1.6840    -0.0220 c6         1 9EC      -0.118400
     14 C19          3.8320    -0.6910    -1.0290 c5         1 9EC       0.126300
     15 C20          2.7740     0.3630    -1.4720 cx         1 9EC       0.079300
     16 C21          2.8490     1.4880    -0.4750 cx         1 9EC       0.079300
     17 C26          3.9520     1.0950     0.5520 c5         1 9EC       0.126300
     18 C27          3.3010     0.2630     1.7040 c6         1 9EC      -0.118400
     19 F08         -6.2760    -2.3840    -0.6380 f          1 9EC      -0.162000
     20 N03         -1.0190    -0.8030     0.4340 ns         1 9EC      -0.147000
     21 N23          4.9140     0.1690    -0.2790 n4         1 9EC      -0.518000
     22 O01          0.2460    -2.6690     1.0160 o          1 9EC      -0.507000
     23 O16          1.1510    -0.5640     0.8870 os         1 9EC      -0.478100
     24 O22          3.1900     1.6930    -1.8680 op         1 9EC      -0.393000
     25 S15         -2.2860     2.0610     1.2840 ss         1 9EC       0.179000
     26 H37         -3.8000     1.6310    -2.0210 ha         1 9EC       0.144000
     27 H38         -3.1140     4.1240    -1.6120 ha         1 9EC       0.147000
     28 H39         -2.0040     4.4740     0.7740 h4         1 9EC       0.155000
     29 H34         -1.9780    -3.3860     0.3450 ha         1 9EC       0.123000
     30 H35         -4.3060    -4.0410    -0.1330 ha         1 9EC       0.146000
     31 H36         -5.4300     0.0900    -0.5440 ha         1 9EC       0.147000
     32 H28          2.4340    -1.6930     2.0360 h1         1 9EC       0.102700
     33 H40          3.9090    -2.4120     0.3310 hc         1 9EC       0.098700
     34 H41          2.4270    -2.2900    -0.5580 hc         1 9EC       0.098700
     35 H29          4.2980    -1.2220    -1.8650 hx         1 9EC       0.124700
     36 H30          1.7990     0.0500    -1.8460 h1         1 9EC       0.158700
     37 H31          1.9260     1.9660    -0.1450 h1         1 9EC       0.158700
     38 H43          6.4340     0.2420    -1.8210 hx         1 9EC       0.098700
     39 H42          5.2870     1.5910    -1.9130 hx         1 9EC       0.098700
     40 H44          6.5230     1.5730    -0.6410 hx         1 9EC       0.098700
     41 H45          6.5590     0.0100     1.1220 hx         1 9EC       0.098700
     42 H46          5.3350    -1.2670     1.3120 hx         1 9EC       0.098700
     43 H47          6.4690    -1.3230    -0.0580 hx         1 9EC       0.098700
     44 H32          4.5100     1.9500     0.9440 hx         1 9EC       0.124700
     45 H49          2.6310     0.9140     2.2820 hc         1 9EC       0.098700
     46 H48          4.0670    -0.0530     2.4210 hc         1 9EC       0.098700
     47 H33         -0.8840     0.1910     0.3140 hn         1 9EC       0.175000
     48 C24          5.8490     0.9530    -1.2350 c3         1 9EC       0.079900
     49 C25          5.8860    -0.6650     0.5900 c3         1 9EC       0.079900
@<TRIPOS>BOND
     1     1     2 1   
     2     1     7 ar  
     3     1    11 ar  
     4     2     3 2   
     5     2    25 1   
     6     3     4 1   
     7     3    26 1   
     8     4     5 2   
     9     4    27 1   
    10     5    25 1   
    11     5    28 1   
    12     6    20 1   
    13     6    22 2   
    14     6    23 1   
    15     7     8 ar  
    16     7    20 1   
    17     8     9 ar  
    18     8    29 1   
    19     9    10 ar  
    20     9    30 1   
    21    10    11 ar  
    22    10    19 1   
    23    11    31 1   
    24    12    13 1   
    25    12    18 1   
    26    12    23 1   
    27    12    32 1   
    28    13    14 1   
    29    13    33 1   
    30    13    34 1   
    31    14    15 1   
    32    14    21 1   
    33    14    35 1   
    34    15    16 1   
    35    15    24 1   
    36    15    36 1   
    37    16    17 1   
    38    16    24 1   
    39    16    37 1   
    40    17    18 1   
    41    17    21 1   
    42    17    44 1   
    43    18    45 1   
    44    18    46 1   
    45    20    47 1   
    46    21    48 1   
    47    21    49 1   
    48    38    48 1   
    49    39    48 1   
    50    40    48 1   
    51    41    49 1   
    52    42    49 1   
    53    43    49 1   
@<TRIPOS>SUBSTRUCTURE
     1 9EC         1 TEMP              0 ****  ****    0 ROOT
