@<TRIPOS>MOLECULE
9EE
   22    21     1     0     0
SMALL
bcc


@<TRIPOS>ATOM
      1 NAG         -4.2660     0.7080    -0.0370 nt         1 9EE      -0.682000
      2 CAB         -3.2120    -0.1220     0.0430 c          1 9EE       0.671100
      3 OAH         -3.3350    -1.3360     0.1170 o          1 9EE      -0.606600
      4 CAA         -1.8640     0.5700     0.0320 c3         1 9EE      -0.159900
      5 CAC         -0.6760    -0.3780     0.0130 c3         1 9EE      -0.066400
      6 CAD          0.6460     0.3810     0.0030 c3         1 9EE      -0.066400
      7 CAE          1.8330    -0.5680    -0.0170 c3         1 9EE      -0.159900
      8 CAF          3.1820     0.1230    -0.0260 c          1 9EE       0.671100
      9 OAI          3.3050     1.3400    -0.0410 o          1 9EE      -0.606600
     10 NAJ          4.2350    -0.7110    -0.0180 nt         1 9EE      -0.682000
     11 H1          -5.2050     0.3480    -0.0060 hn         1 9EE       0.312250
     12 H2          -4.1530     1.7060    -0.0750 hn         1 9EE       0.312250
     13 H3          -1.8220     1.2410    -0.8320 hc         1 9EE       0.056700
     14 H4          -1.8080     1.2220     0.9100 hc         1 9EE       0.056700
     15 H5          -0.7130    -1.0370     0.8840 hc         1 9EE       0.053200
     16 H6          -0.7320    -1.0260    -0.8670 hc         1 9EE       0.053200
     17 H7           0.6830     1.0410    -0.8680 hc         1 9EE       0.053200
     18 H8           0.7020     1.0280     0.8820 hc         1 9EE       0.053200
     19 H9           1.7920    -1.2370     0.8490 hc         1 9EE       0.056700
     20 H10          1.7760    -1.2220    -0.8930 hc         1 9EE       0.056700
     21 H11          5.1750    -0.3500    -0.0260 hn         1 9EE       0.312250
     22 H12          4.1220    -1.7090    -0.0040 hn         1 9EE       0.312250
@<TRIPOS>BOND
     1     1     2 1   
     2     1    11 1   
     3     1    12 1   
     4     2     3 2   
     5     2     4 1   
     6     4     5 1   
     7     4    13 1   
     8     4    14 1   
     9     5     6 1   
    10     5    15 1   
    11     5    16 1   
    12     6     7 1   
    13     6    17 1   
    14     6    18 1   
    15     7     8 1   
    16     7    19 1   
    17     7    20 1   
    18     8     9 2   
    19     8    10 1   
    20    10    21 1   
    21    10    22 1   
@<TRIPOS>SUBSTRUCTURE
     1 9EE         1 TEMP              0 ****  ****    0 ROOT
