@<TRIPOS>MOLECULE
9EE
   22    21     1     0     0
SMALL
No Charge or Current Charge


@<TRIPOS>ATOM
      1 NAG         -4.3490     0.7180     0.0190 nt         1 9EE      -0.615000
      2 CAB         -3.2860    -0.1120     0.0200 c          1 9EE       0.604100
      3 OAH         -3.4500    -1.3210     0.0300 o          1 9EE      -0.606600
      4 CAA         -1.9120     0.5720     0.0070 c3         1 9EE      -0.159900
      5 CAC         -0.6890    -0.3770     0.0080 c3         1 9EE      -0.066400
      6 CAD          0.6580     0.3780    -0.0060 c3         1 9EE      -0.066400
      7 CAE          1.8820    -0.5700    -0.0040 c3         1 9EE      -0.159900
      8 CAF          3.2550     0.1130    -0.0180 c          1 9EE       0.604100
      9 OAI          3.4190     1.3220    -0.0290 o          1 9EE      -0.606600
     10 NAJ          4.3190    -0.7170    -0.0170 nt         1 9EE      -0.615000
     11 H1          -5.2800     0.3280     0.0270 hn         1 9EE       0.312250
     12 H2          -4.2110     1.7180     0.0100 hn         1 9EE       0.312250
     13 H3          -1.8920     1.2630    -0.8440 hc         1 9EE       0.056700
     14 H4          -1.8830     1.2770     0.8450 hc         1 9EE       0.056700
     15 H5          -0.7320    -1.0210     0.8960 hc         1 9EE       0.053200
     16 H6          -0.7420    -1.0360    -0.8690 hc         1 9EE       0.053200
     17 H7           0.7020     1.0220    -0.8940 hc         1 9EE       0.053200
     18 H8           0.7110     1.0370     0.8710 hc         1 9EE       0.053200
     19 H9           1.8610    -1.2620     0.8470 hc         1 9EE       0.056700
     20 H10          1.8520    -1.2760    -0.8430 hc         1 9EE       0.056700
     21 H11          5.2500    -0.3270    -0.0250 hn         1 9EE       0.312250
     22 H12          4.1800    -1.7160    -0.0080 hn         1 9EE       0.312250
@<TRIPOS>BOND
     1     1     2 1   
     2     1    11 1   
     3     1    12 1   
     4     2     3 2   
     5     2     4 1   
     6     4     5 1   
     7     4    13 1   
     8     4    14 1   
     9     5     6 1   
    10     5    15 1   
    11     5    16 1   
    12     6     7 1   
    13     6    17 1   
    14     6    18 1   
    15     7     8 1   
    16     7    19 1   
    17     7    20 1   
    18     8     9 2   
    19     8    10 1   
    20    10    21 1   
    21    10    22 1   
@<TRIPOS>SUBSTRUCTURE
     1 9EE         1 TEMP              0 ****  ****    0 ROOT
