@<TRIPOS>MOLECULE
9EG
   28    29     1     0     0
SMALL
bcc


@<TRIPOS>ATOM
      1 C12         -2.8450    -1.2620    -0.3940 ca         1 9EG      -0.185000
      2 C11         -1.8180    -0.3160    -0.3420 ca         1 9EG       0.101600
      3 CL2         -5.3970    -2.0770    -0.4510 cl         1 9EG      -0.079400
      4 CL1          7.5380     0.1350     0.1970 cl         1 9EG      -0.108400
      5 C8           0.6540    -0.1290    -0.1970 c          1 9EG       0.808100
      6 N1          -0.5210    -0.8150    -0.3700 ns         1 9EG      -0.487100
      7 C4           3.0900    -0.6150    -0.1320 ca         1 9EG       0.087600
      8 C5           4.0130    -1.6330    -0.3930 ca         1 9EG      -0.162500
      9 C6           5.3730    -1.4110    -0.2930 ca         1 9EG      -0.091000
     10 C1           5.8330    -0.1550     0.0700 ca         1 9EG       0.000400
     11 C2           4.9370     0.8660     0.3330 ca         1 9EG      -0.091000
     12 C3           3.5700     0.6440     0.2360 ca         1 9EG      -0.162500
     13 N7           1.7430    -0.9550    -0.2470 ns         1 9EG      -0.486100
     14 O9           0.7180     1.0720    -0.0180 o          1 9EG      -0.598100
     15 C13         -4.1700    -0.8700    -0.3850 ca         1 9EG       0.058400
     16 C14         -4.5060     0.4770    -0.3190 ca         1 9EG      -0.003600
     17 C15         -3.4890     1.4150    -0.2670 ca         1 9EG      -0.086000
     18 C16         -2.1560     1.0380    -0.2800 ca         1 9EG      -0.144000
     19 CL3         -6.1520     0.9850    -0.3040 cl         1 9EG      -0.077400
     20 H1          -2.6090    -2.3170    -0.4420 ha         1 9EG       0.144000
     21 H2          -0.4610    -1.8150    -0.4830 hn         1 9EG       0.316500
     22 H3           3.6630    -2.6160    -0.6830 ha         1 9EG       0.151000
     23 H4           6.0640    -2.2170    -0.5020 ha         1 9EG       0.149500
     24 H5           5.2920     1.8460     0.6210 ha         1 9EG       0.149500
     25 H6           2.8990     1.4580     0.4520 ha         1 9EG       0.151000
     26 H7           1.5780    -1.9330    -0.4320 hn         1 9EG       0.315500
     27 H8          -3.7360     2.4670    -0.2180 ha         1 9EG       0.153000
     28 H9          -1.4010     1.8030    -0.2430 ha         1 9EG       0.176000
@<TRIPOS>BOND
     1     1     2 ar  
     2     1    15 ar  
     3     1    20 1   
     4     2     6 1   
     5     2    18 ar  
     6     3    15 1   
     7     4    10 1   
     8     5     6 1   
     9     5    13 1   
    10     5    14 2   
    11     6    21 1   
    12     7     8 ar  
    13     7    12 ar  
    14     7    13 1   
    15     8     9 ar  
    16     8    22 1   
    17     9    10 ar  
    18     9    23 1   
    19    10    11 ar  
    20    11    12 ar  
    21    11    24 1   
    22    12    25 1   
    23    13    26 1   
    24    15    16 ar  
    25    16    17 ar  
    26    16    19 1   
    27    17    18 ar  
    28    17    27 1   
    29    18    28 1   
@<TRIPOS>SUBSTRUCTURE
     1 9EG         1 TEMP              0 ****  ****    0 ROOT
