@<TRIPOS>MOLECULE
9EG
   28    29     1     0     0
SMALL
No Charge or Current Charge


@<TRIPOS>ATOM
      1 C12         -2.8620    -1.2650    -0.5100 ca         1 9EG      -0.167000
      2 C11         -1.8880    -0.2680    -0.3130 ca         1 9EG       0.009000
      3 Cl2         -5.4080    -2.2330    -0.7740 cl         1 9EG      -0.171000
      4 Cl1          7.7110    -0.0630     0.1530 cl         1 9EG      -0.200000
      5 C8           0.6620     0.0260    -0.1530 c          1 9EG       0.674100
      6 N1          -0.5250    -0.6760    -0.3140 ns         1 9EG      -0.161000
      7 C4           3.1630    -0.5770    -0.1320 ca         1 9EG      -0.005000
      8 C5           4.0210    -1.6870    -0.2640 ca         1 9EG      -0.144500
      9 C6           5.4160    -1.5310    -0.1770 ca         1 9EG      -0.073000
     10 C1           5.9660    -0.2600     0.0440 ca         1 9EG       0.092000
     11 C2           5.1230     0.8540     0.1780 ca         1 9EG      -0.073000
     12 C3           3.7270     0.7000     0.0910 ca         1 9EG      -0.144500
     13 N7           1.7630    -0.8150    -0.2320 ns         1 9EG      -0.160000
     14 O9           0.7270     1.2350     0.0360 o          1 9EG      -0.598100
     15 C13         -4.2310    -0.9440    -0.5230 ca         1 9EG       0.150000
     16 C14         -4.6410     0.3910    -0.3370 ca         1 9EG       0.088000
     17 C15         -3.6770     1.3920    -0.1400 ca         1 9EG      -0.068000
     18 C16         -2.3080     1.0680    -0.1280 ca         1 9EG      -0.126000
     19 Cl3         -6.3500     0.8320    -0.3470 cl         1 9EG      -0.169000
     20 H1          -2.5610    -2.3000    -0.6550 ha         1 9EG       0.126000
     21 H2          -0.4000    -1.6690    -0.4610 hn         1 9EG       0.150000
     22 H3           3.6070    -2.6790    -0.4360 ha         1 9EG       0.133000
     23 H4           6.0690    -2.3940    -0.2810 ha         1 9EG       0.131500
     24 H5           5.5520     1.8390     0.3500 ha         1 9EG       0.131500
     25 H6           3.1080     1.5840     0.2000 ha         1 9EG       0.133000
     26 H7           1.5300    -1.7860    -0.3910 hn         1 9EG       0.149000
     27 H8          -3.9920     2.4230     0.0030 ha         1 9EG       0.135000
     28 H9          -1.5950     1.8720     0.0280 ha         1 9EG       0.158000
@<TRIPOS>BOND
     1     1     2 ar  
     2     1    15 ar  
     3     1    20 1   
     4     2     6 1   
     5     2    18 ar  
     6     3    15 1   
     7     4    10 1   
     8     5     6 1   
     9     5    13 1   
    10     5    14 2   
    11     6    21 1   
    12     7     8 ar  
    13     7    12 ar  
    14     7    13 1   
    15     8     9 ar  
    16     8    22 1   
    17     9    10 ar  
    18     9    23 1   
    19    10    11 ar  
    20    11    12 ar  
    21    11    24 1   
    22    12    25 1   
    23    13    26 1   
    24    15    16 ar  
    25    16    17 ar  
    26    16    19 1   
    27    17    18 ar  
    28    17    27 1   
    29    18    28 1   
@<TRIPOS>SUBSTRUCTURE
     1 9EG         1 TEMP              0 ****  ****    0 ROOT
