@<TRIPOS>MOLECULE
9EI
   33    35     1     0     0
SMALL
abcg2


@<TRIPOS>ATOM
      1 C4           0.2160    69.4200    37.5870 ca         1 9EI      -0.033000
      2 C6          -1.4320    70.8260    38.6880 c          1 9EI       0.616700
      3 C7          -2.3040    72.0260    38.5320 ca         1 9EI      -0.164600
      4 C8          -1.9260    73.1290    37.7800 ca         1 9EI      -0.134000
      5 C10         -2.7810    74.2300    37.6960 ca         1 9EI       0.243000
      6 C1           1.9320    67.2170    37.4740 ca         1 9EI      -0.097000
      7 C2           0.7670    67.2190    36.7610 ca         1 9EI      -0.100000
      8 C3          -0.1010    68.3260    36.8260 ca         1 9EI      -0.121000
      9 C12         -3.9930    74.1400    38.3970 ca         1 9EI       0.291900
     10 O18         -1.4210    70.1690    39.7140 o          1 9EI      -0.565100
     11 N30         -2.4800    75.3270    36.9350 nv         1 9EI      -1.078000
     12 N13         -4.3500    73.0890    39.1150 nb         1 9EI      -0.638000
     13 C15         -3.5280    72.0530    39.1940 ca         1 9EI       0.339900
     14 N5          -0.6620    70.5280    37.6130 ns         1 9EI      -0.171000
     15 C22          2.2920    68.3320    38.2670 ca         1 9EI      -0.030000
     16 C21          1.4340    69.4630    38.3180 ca         1 9EI      -0.024000
     17 C24          3.5030    68.3520    38.9980 ca         1 9EI      -0.102000
     18 C26          3.8570    69.4470    39.7380 ca         1 9EI      -0.102000
     19 C28          3.0150    70.5780    39.7690 ca         1 9EI      -0.109000
     20 C20          1.8340    70.5870    39.0780 ca         1 9EI      -0.082000
     21 H1          -0.9660    73.1630    37.2770 ha         1 9EI       0.119000
     22 H2           2.5990    66.3640    37.4370 ha         1 9EI       0.115000
     23 H3           0.4960    66.3680    36.1510 ha         1 9EI       0.116000
     24 H4          -1.0320    68.3150    36.2730 ha         1 9EI       0.116000
     25 H5          -4.6900    74.9720    38.3640 h4         1 9EI       0.020100
     26 H6          -2.9580    76.1830    37.1650 hn         1 9EI       0.459500
     27 H7          -1.5080    75.4730    36.7150 hn         1 9EI       0.459500
     28 H8          -3.8530    71.2100    39.7920 h4         1 9EI       0.042100
     29 H9          -0.8620    70.9800    36.7330 hn         1 9EI       0.158000
     30 H10          4.1490    67.4830    38.9580 ha         1 9EI       0.113000
     31 H11          4.7850    69.4520    40.2930 ha         1 9EI       0.113000
     32 H12          3.3100    71.4470    40.3430 ha         1 9EI       0.113000
     33 H13          1.2120    71.4720    39.0990 ha         1 9EI       0.116000
@<TRIPOS>BOND
     1     1     8 ar  
     2     1    14 1   
     3     1    16 ar  
     4     2     3 1   
     5     2    10 2   
     6     2    14 1   
     7     3     4 ar  
     8     3    13 ar  
     9     4     5 ar  
    10     4    21 1   
    11     5     9 ar  
    12     5    11 1   
    13     6     7 ar  
    14     6    15 ar  
    15     6    22 1   
    16     7     8 ar  
    17     7    23 1   
    18     8    24 1   
    19     9    12 ar  
    20     9    25 1   
    21    11    26 1   
    22    11    27 1   
    23    12    13 ar  
    24    13    28 1   
    25    14    29 1   
    26    15    16 ar  
    27    15    17 ar  
    28    16    20 ar  
    29    17    18 ar  
    30    17    30 1   
    31    18    19 ar  
    32    18    31 1   
    33    19    20 ar  
    34    19    32 1   
    35    20    33 1   
@<TRIPOS>SUBSTRUCTURE
     1 9EI         1 TEMP              0 ****  ****    0 ROOT
