@<TRIPOS>MOLECULE
9EI
   33    35     1     0     0
SMALL
No Charge or Current Charge


@<TRIPOS>ATOM
      1 C4           0.1420    69.3030    38.0160 ca         1 9EI      -0.033000
      2 C6          -2.1450    70.4660    38.1870 c          1 9EI       0.616700
      3 C7          -2.7410    71.8520    38.1700 ca         1 9EI      -0.164600
      4 C8          -1.9600    73.0320    38.0420 ca         1 9EI      -0.134000
      5 C10         -2.6050    74.2800    38.0370 ca         1 9EI       0.243000
      6 C1           1.9560    67.1400    37.8230 ca         1 9EI      -0.097000
      7 C2           0.6110    66.9630    37.4720 ca         1 9EI      -0.100000
      8 C3          -0.2890    68.0360    37.5640 ca         1 9EI      -0.121000
      9 C12         -4.0230    74.2950    38.1620 ca         1 9EI       0.291900
     10 O18         -2.8540    69.4720    38.2940 o          1 9EI      -0.565100
     11 N30         -1.8470    75.4340    37.9110 nv         1 9EI      -1.078000
     12 N13         -4.7800    73.1770    38.2840 nb         1 9EI      -0.638000
     13 C15         -4.1410    71.9830    38.2860 ca         1 9EI       0.339900
     14 N5          -0.7600    70.4050    38.0940 ns         1 9EI      -0.171000
     15 C22          2.4090    68.3950    38.2640 ca         1 9EI      -0.030000
     16 C21          1.5080    69.4850    38.3620 ca         1 9EI      -0.024000
     17 C24          3.7650    68.5590    38.6080 ca         1 9EI      -0.102000
     18 C26          4.2360    69.8040    39.0510 ca         1 9EI      -0.102000
     19 C28          3.3540    70.8890    39.1540 ca         1 9EI      -0.109000
     20 C20          1.9990    70.7340    38.8140 ca         1 9EI      -0.082000
     21 H1          -0.8790    72.9940    37.9460 ha         1 9EI       0.119000
     22 H2           2.6460    66.3020    37.7470 ha         1 9EI       0.115000
     23 H3           0.2660    65.9930    37.1210 ha         1 9EI       0.116000
     24 H4          -1.3170    67.8680    37.2590 ha         1 9EI       0.116000
     25 H5          -4.5660    75.2400    38.1630 h4         1 9EI       0.020100
     26 H6          -2.2970    76.3450    37.8130 hn         1 9EI       0.459500
     27 H7          -0.8450    75.3810    37.7270 hn         1 9EI       0.459500
     28 H8          -4.7820    71.1080    38.3860 h4         1 9EI       0.042100
     29 H9          -0.3070    71.3070    38.0590 hn         1 9EI       0.158000
     30 H10          4.4550    67.7220    38.5310 ha         1 9EI       0.113000
     31 H11          5.2850    69.9270    39.3150 ha         1 9EI       0.113000
     32 H12          3.7190    71.8540    39.5010 ha         1 9EI       0.113000
     33 H13          1.3440    71.5960    38.9130 ha         1 9EI       0.116000
@<TRIPOS>BOND
     1     1     8 ar  
     2     1    14 1   
     3     1    16 ar  
     4     2     3 1   
     5     2    10 2   
     6     2    14 1   
     7     3     4 ar  
     8     3    13 ar  
     9     4     5 ar  
    10     4    21 1   
    11     5     9 ar  
    12     5    11 1   
    13     6     7 ar  
    14     6    15 ar  
    15     6    22 1   
    16     7     8 ar  
    17     7    23 1   
    18     8    24 1   
    19     9    12 ar  
    20     9    25 1   
    21    11    26 1   
    22    11    27 1   
    23    12    13 ar  
    24    13    28 1   
    25    14    29 1   
    26    15    16 ar  
    27    15    17 ar  
    28    16    20 ar  
    29    17    18 ar  
    30    17    30 1   
    31    18    19 ar  
    32    18    31 1   
    33    19    20 ar  
    34    19    32 1   
    35    20    33 1   
@<TRIPOS>SUBSTRUCTURE
     1 9EI         1 TEMP              0 ****  ****    0 ROOT
