@<TRIPOS>MOLECULE
9EJ
   73    77     1     0     0
SMALL
No Charge or Current Charge


@<TRIPOS>ATOM
      1 C10          5.9350     1.0110     1.2130 c3         1 9EJ       0.105000
      2 N12          6.0290    -1.1760    -0.0980 n3         1 9EJ      -0.767600
      3 C13          8.1280    -0.2970     1.0790 c3         1 9EJ      -0.119100
      4 C15          6.3450    -2.6350    -0.0700 c3         1 9EJ       0.179300
      5 C17          5.4280    -1.0780    -2.5800 c3         1 9EJ      -0.093100
      6 C20         -1.2890     4.3280     1.9480 cy         1 9EJ       0.201800
      7 C21         -2.7680     4.4370     1.4430 cy         1 9EJ      -0.095400
      8 C22         -2.7300     2.8590     1.3280 cy         1 9EJ       0.137500
      9 C01          1.7340     0.3890     0.2940 ca         1 9EJ      -0.204000
     10 C02          2.1250     1.5700     0.9670 ca         1 9EJ      -0.064600
     11 C03          1.0990     2.4810     1.2770 ca         1 9EJ      -0.180000
     12 C04         -0.2230     2.1850     0.9210 ca         1 9EJ       0.615900
     13 N05         -0.5730     1.0650     0.2810 nb         1 9EJ      -0.750000
     14 C06          0.3780     0.1600    -0.0190 ca         1 9EJ       0.504800
     15 N08          4.4940     0.9280     0.9840 ns         1 9EJ      -0.495900
     16 O09          3.8940     2.9020     1.9190 o          1 9EJ      -0.609100
     17 C11          6.5840    -0.3940     1.0630 c3         1 9EJ       0.169500
     18 C16          5.8840    -3.3820     1.1970 c3         1 9EJ      -0.093100
     19 C18          0.0180    -1.0280    -0.7910 cc         1 9EJ      -0.360400
     20 N19         -1.2470     3.0590     1.1730 nn         1 9EJ      -0.765300
     21 C23         -3.6400     2.8220     0.0080 c          1 9EJ       0.598100
     22 O24         -4.7400     3.3060    -0.2500 o          1 9EJ      -0.625100
     23 N25         -3.0270     2.0430    -0.9440 ns         1 9EJ      -0.485900
     24 C27          0.8630    -1.8620    -1.5450 cc         1 9EJ       0.409500
     25 N28          0.2580    -2.8560    -2.1770 nd         1 9EJ      -0.573100
     26 N29         -1.0670    -2.6660    -1.8100 na         1 9EJ       0.108900
     27 C30         -1.2230    -1.5670    -0.9650 cd         1 9EJ       0.419500
     28 C31         -2.1610    -3.4300    -2.1870 cc         1 9EJ      -0.031000
     29 C32         -3.3380    -2.9680    -1.6010 cd         1 9EJ      -0.218000
     30 C33         -3.4000    -1.8750    -0.7290 cc         1 9EJ       0.488500
     31 N34         -2.3710    -1.1190    -0.3480 nd         1 9EJ      -0.646000
     32 C35         -4.7110    -1.5530    -0.2020 cc         1 9EJ      -0.315500
     33 C36         -4.9290    -0.5280     0.6950 cd         1 9EJ      -0.063000
     34 C37         -6.2920    -0.3820     1.0670 cd         1 9EJ      -0.134000
     35 C38         -7.1270    -1.2890     0.4670 cc         1 9EJ      -0.225000
     36 S39         -6.2290    -2.3730    -0.5880 ss         1 9EJ       0.218000
     37 H1           6.3680     1.7080     0.4840 h1         1 9EJ       0.051200
     38 H2           6.1290     1.4010     2.2200 h1         1 9EJ       0.051200
     39 H4           8.5880    -1.2920     1.0870 hc         1 9EJ       0.041367
     40 H5           8.5010     0.2510     0.2060 hc         1 9EJ       0.041367
     41 H6           8.4660     0.2310     1.9790 hc         1 9EJ       0.041367
     42 H7           5.8480    -3.1350    -0.9110 h1         1 9EJ       0.032950
     43 H8           7.4230    -2.7980    -0.2040 h1         1 9EJ       0.032950
     44 H9           5.6760    -2.1130    -2.8360 hc         1 9EJ       0.037200
     45 H10          4.3670    -1.0240    -2.3120 hc         1 9EJ       0.037200
     46 H11          5.5850    -0.4670    -3.4760 hc         1 9EJ       0.037200
     47 H13         -1.1930     4.2060     3.0340 h1         1 9EJ       0.056200
     48 H14         -3.4840     4.8440     2.1640 hc         1 9EJ       0.075200
     49 H15         -2.8400     5.0160     0.5130 hc         1 9EJ       0.075200
     50 H16         -3.0910     2.3110     2.2070 h1         1 9EJ       0.069700
     51 H17         -2.8720     1.0570    -2.7880 h1         1 9EJ       0.034367
     52 H18         -4.5260     1.1480    -2.1120 h1         1 9EJ       0.034367
     53 H19         -3.7670     2.6080    -2.8290 h1         1 9EJ       0.034367
     54 H20          2.4690    -0.3590     0.0200 ha         1 9EJ       0.122000
     55 H21          1.3220     3.4130     1.7840 ha         1 9EJ       0.146000
     56 H22          4.1650     0.1030     0.4980 hn         1 9EJ       0.345500
     57 H23          6.3030    -0.9120     1.9890 h1         1 9EJ       0.062700
     58 H26          6.4850    -3.1010     2.0690 hc         1 9EJ       0.037200
     59 H27          4.8290    -3.1690     1.4100 hc         1 9EJ       0.037200
     60 H28          5.9920    -4.4630     1.0550 hc         1 9EJ       0.037200
     61 H29         -2.1430     1.6250    -0.6500 hn         1 9EJ       0.364500
     62 H30          1.9330    -1.7630    -1.6710 h4         1 9EJ       0.050800
     63 H31         -2.0270    -4.2680    -2.8580 h4         1 9EJ       0.165000
     64 H32         -4.2350    -3.5180    -1.8480 ha         1 9EJ       0.147000
     65 H33         -4.1450     0.1110     1.0900 ha         1 9EJ       0.151000
     66 H34         -6.6390     0.3780     1.7620 ha         1 9EJ       0.145000
     67 H35         -8.1990    -1.4060     0.5670 h4         1 9EJ       0.155000
     68 C14          6.3060    -0.5520    -1.4260 c3         1 9EJ       0.179300
     69 C07          3.5650     1.8750     1.3390 c          1 9EJ       0.609700
     70 H12         -0.6390     5.1360     1.5910 h1         1 9EJ       0.056200
     71 C26         -3.5840     1.6940    -2.2490 c3         1 9EJ       0.097300
     72 H24          6.1360     0.5310    -1.3770 h1         1 9EJ       0.032950
     73 H25          7.3610    -0.6940    -1.6990 h1         1 9EJ       0.032950
@<TRIPOS>BOND
     1     1    15 1   
     2     1    17 1   
     3     1    37 1   
     4     1    38 1   
     5     2     4 1   
     6     2    17 1   
     7     2    68 1   
     8     3    17 1   
     9     3    39 1   
    10     3    40 1   
    11     3    41 1   
    12     4    18 1   
    13     4    42 1   
    14     4    43 1   
    15     5    44 1   
    16     5    45 1   
    17     5    46 1   
    18     5    68 1   
    19     6     7 1   
    20     6    20 1   
    21     6    47 1   
    22     6    70 1   
    23     7     8 1   
    24     7    48 1   
    25     7    49 1   
    26     8    20 1   
    27     8    21 1   
    28     8    50 1   
    29     9    10 ar  
    30     9    14 ar  
    31     9    54 1   
    32    10    11 ar  
    33    10    69 1   
    34    11    12 ar  
    35    11    55 1   
    36    12    13 ar  
    37    12    20 1   
    38    13    14 ar  
    39    14    19 1   
    40    15    56 1   
    41    15    69 1   
    42    16    69 2   
    43    17    57 1   
    44    18    58 1   
    45    18    59 1   
    46    18    60 1   
    47    19    24 1   
    48    19    27 2   
    49    21    22 2   
    50    21    23 1   
    51    23    61 1   
    52    23    71 1   
    53    24    25 2   
    54    24    62 1   
    55    25    26 1   
    56    26    27 1   
    57    26    28 1   
    58    27    31 1   
    59    28    29 2   
    60    28    63 1   
    61    29    30 1   
    62    29    64 1   
    63    30    31 2   
    64    30    32 1   
    65    32    33 2   
    66    32    36 1   
    67    33    34 1   
    68    33    65 1   
    69    34    35 2   
    70    34    66 1   
    71    35    36 1   
    72    35    67 1   
    73    51    71 1   
    74    52    71 1   
    75    53    71 1   
    76    68    72 1   
    77    68    73 1   
@<TRIPOS>SUBSTRUCTURE
     1 9EJ         1 TEMP              0 ****  ****    0 ROOT
