@<TRIPOS>MOLECULE
9EJ
   73    77     1     0     0
SMALL
bcc


@<TRIPOS>ATOM
      1 C10          6.0290     1.2840     0.4840 c3         1 9EJ       0.105000
      2 N12          5.9710    -1.1550     0.2490 n3         1 9EJ      -0.767600
      3 C13          8.1200    -0.0340     0.9660 c3         1 9EJ      -0.119100
      4 C15          5.9070    -2.3860     1.0240 c3         1 9EJ       0.179300
      5 C17          5.3940    -1.9210    -2.0260 c3         1 9EJ      -0.093100
      6 C20         -0.8650     3.8170     2.3480 cy         1 9EJ       0.201800
      7 C21         -2.3380     3.5490     2.6960 cy         1 9EJ      -0.095400
      8 C22         -2.3450     2.4770     1.5950 cy         1 9EJ       0.137500
      9 C01          1.9080     0.6540    -0.5350 ca         1 9EJ      -0.287300
     10 C02          2.2910     1.7710     0.2020 ca         1 9EJ      -0.064600
     11 C03          1.3230     2.5610     0.7870 ca         1 9EJ      -0.263300
     12 C04         -0.0190     2.1790     0.6380 ca         1 9EJ       0.681200
     13 N05         -0.3850     1.1150    -0.0710 nb         1 9EJ      -0.750000
     14 C06          0.5510     0.3680    -0.6600 ca         1 9EJ       0.570100
     15 N08          4.5990     1.1540     0.3620 ns         1 9EJ      -0.562900
     16 O09          4.0470     3.3370     0.5320 o          1 9EJ      -0.609100
     17 C11          6.5940    -0.0530     0.9770 c3         1 9EJ       0.169500
     18 C16          4.7640    -2.3810     2.0270 c3         1 9EJ      -0.093100
     19 C18          0.1080    -0.7590    -1.4660 cc         1 9EJ      -0.360400
     20 N19         -1.0050     2.9180     1.2060 nn         1 9EJ      -0.765300
     21 C23         -3.4350     2.6070     0.5360 c          1 9EJ       0.665100
     22 O24         -4.4460     3.2670     0.7390 o          1 9EJ      -0.625100
     23 N25         -3.2040     1.9330    -0.5910 ns         1 9EJ      -0.552900
     24 C27          0.8670    -1.5210    -2.3720 cc         1 9EJ       0.409500
     25 N28          0.1740    -2.4650    -2.9780 nd         1 9EJ      -0.573100
     26 N29         -1.0570    -2.3450    -2.4760 na         1 9EJ       0.058200
     27 C30         -1.1660    -1.3270    -1.5480 cd         1 9EJ       0.419500
     28 C31         -2.1210    -3.1030    -2.8120 cc         1 9EJ       0.001700
     29 C32         -3.3070    -2.8440    -2.2080 cd         1 9EJ      -0.301300
     30 C33         -3.3710    -1.7940    -1.2470 cc         1 9EJ       0.553800
     31 N34         -2.3220    -1.0670    -0.9390 nd         1 9EJ      -0.646000
     32 C35         -4.6070    -1.4820    -0.5470 cc         1 9EJ      -0.170600
     33 C36         -4.7330    -0.7790     0.6220 cd         1 9EJ      -0.081000
     34 C37         -6.0770    -0.6200     1.0260 cd         1 9EJ      -0.152000
     35 C38         -6.9550    -1.2020     0.1590 cc         1 9EJ      -0.098100
     36 S39         -6.1540    -1.9510    -1.1500 ss         1 9EJ      -0.071800
     37 H1           6.4760     1.5680    -0.4750 h1         1 9EJ       0.051200
     38 H2           6.2810     2.0690     1.1980 h1         1 9EJ       0.051200
     39 H4           8.5280    -0.9850     1.3090 hc         1 9EJ       0.041367
     40 H5           8.5230     0.1650    -0.0290 hc         1 9EJ       0.041367
     41 H6           8.4930     0.7440     1.6340 hc         1 9EJ       0.041367
     42 H7           5.7580    -3.2190     0.3350 h1         1 9EJ       0.032950
     43 H8           6.8590    -2.5920     1.5350 h1         1 9EJ       0.032950
     44 H9           5.0340    -2.8930    -1.6840 hc         1 9EJ       0.037200
     45 H10          4.5370    -1.2490    -2.0870 hc         1 9EJ       0.037200
     46 H11          5.7880    -2.0540    -3.0330 hc         1 9EJ       0.037200
     47 H13         -0.1570     3.4530     3.0980 h1         1 9EJ       0.056200
     48 H14         -2.5230     3.1820     3.7020 hc         1 9EJ       0.075200
     49 H15         -3.0050     4.3830     2.4920 hc         1 9EJ       0.075200
     50 H16         -2.3480     1.4500     1.9840 h1         1 9EJ       0.069700
     51 H17         -3.7530     1.2660    -2.4640 h1         1 9EJ       0.034367
     52 H18         -5.1000     1.3810    -1.3310 h1         1 9EJ       0.034367
     53 H19         -4.4130     2.8470    -2.0470 h1         1 9EJ       0.034367
     54 H20          2.6380     0.0350    -1.0380 ha         1 9EJ       0.140000
     55 H21          1.5940     3.4450     1.3490 ha         1 9EJ       0.164000
     56 H22          4.2990     0.1930     0.2440 hn         1 9EJ       0.345500
     57 H23          6.2740    -0.1580     2.0180 h1         1 9EJ       0.062700
     58 H26          4.8400    -1.5530     2.7320 hc         1 9EJ       0.037200
     59 H27          3.8060    -2.2970     1.5140 hc         1 9EJ       0.037200
     60 H28          4.7590    -3.3050     2.6070 hc         1 9EJ       0.037200
     61 H29         -2.3960     1.3170    -0.6120 hn         1 9EJ       0.364500
     62 H30          1.9110    -1.4010    -2.6230 h4         1 9EJ       0.050800
     63 H31         -1.9630    -3.8810    -3.5440 h4         1 9EJ       0.183000
     64 H32         -4.1660    -3.4520    -2.4510 ha         1 9EJ       0.165000
     65 H33         -3.8810    -0.4010     1.1680 ha         1 9EJ       0.169000
     66 H34         -6.3830    -0.1020     1.9230 ha         1 9EJ       0.163000
     67 H35         -8.0320    -1.2300     0.2210 h4         1 9EJ       0.173000
     68 C14          6.4600    -1.3420    -1.1090 c3         1 9EJ       0.179300
     69 C07          3.7310     2.1650     0.3730 c          1 9EJ       0.676700
     70 H12         -0.6040     4.8430     2.0850 h1         1 9EJ       0.056200
     71 C26         -4.1730     1.8580    -1.6550 c3         1 9EJ       0.097300
     72 H24          6.7620    -0.3730    -1.5100 h1         1 9EJ       0.032950
     73 H25          7.3580    -1.9760    -1.1350 h1         1 9EJ       0.032950
@<TRIPOS>BOND
     1     1    15 1   
     2     1    17 1   
     3     1    37 1   
     4     1    38 1   
     5     2     4 1   
     6     2    17 1   
     7     2    68 1   
     8     3    17 1   
     9     3    39 1   
    10     3    40 1   
    11     3    41 1   
    12     4    18 1   
    13     4    42 1   
    14     4    43 1   
    15     5    44 1   
    16     5    45 1   
    17     5    46 1   
    18     5    68 1   
    19     6     7 1   
    20     6    20 1   
    21     6    47 1   
    22     6    70 1   
    23     7     8 1   
    24     7    48 1   
    25     7    49 1   
    26     8    20 1   
    27     8    21 1   
    28     8    50 1   
    29     9    10 ar  
    30     9    14 ar  
    31     9    54 1   
    32    10    11 ar  
    33    10    69 1   
    34    11    12 ar  
    35    11    55 1   
    36    12    13 ar  
    37    12    20 1   
    38    13    14 ar  
    39    14    19 1   
    40    15    56 1   
    41    15    69 1   
    42    16    69 2   
    43    17    57 1   
    44    18    58 1   
    45    18    59 1   
    46    18    60 1   
    47    19    24 1   
    48    19    27 2   
    49    21    22 2   
    50    21    23 1   
    51    23    61 1   
    52    23    71 1   
    53    24    25 2   
    54    24    62 1   
    55    25    26 1   
    56    26    27 1   
    57    26    28 1   
    58    27    31 1   
    59    28    29 2   
    60    28    63 1   
    61    29    30 1   
    62    29    64 1   
    63    30    31 2   
    64    30    32 1   
    65    32    33 2   
    66    32    36 1   
    67    33    34 1   
    68    33    65 1   
    69    34    35 2   
    70    34    66 1   
    71    35    36 1   
    72    35    67 1   
    73    51    71 1   
    74    52    71 1   
    75    53    71 1   
    76    68    72 1   
    77    68    73 1   
@<TRIPOS>SUBSTRUCTURE
     1 9EJ         1 TEMP              0 ****  ****    0 ROOT
