@<TRIPOS>MOLECULE
9EK
   60    64     1     0     0
SMALL
abcg2


@<TRIPOS>ATOM
      1 C1           0.2850    -0.6940     0.5520 c          1 9EK       0.632700
      2 C7          -1.3770    -2.5290     0.0440 ca         1 9EK       0.172100
      3 C9          -3.7160    -2.1290     0.1740 ca         1 9EK      -0.035000
      4 C10         -3.4770    -0.7740     0.5190 ca         1 9EK      -0.126000
      5 C11         -4.7530    -0.2210     0.6630 cc         1 9EK      -0.152300
      6 C14         -5.0990     1.1560     1.0750 c          1 9EK       0.636300
      7 C16         -7.1490     1.1930    -0.3810 c5         1 9EK       0.097500
      8 C19         -6.6190     3.0420     1.0950 c5         1 9EK       0.097500
      9 C21          2.4040    -0.2080    -0.4230 ca         1 9EK      -0.084000
     10 C22          3.3540    -1.2020    -0.2610 ca         1 9EK      -0.068500
     11 C24          4.1650     1.4360    -0.3960 ca         1 9EK      -0.161000
     12 C30          8.2800     2.3690     0.2750 c6         1 9EK       0.147100
     13 C32          8.8470     0.2510    -0.4580 c6         1 9EK       0.147100
     14 C33          7.4670    -0.2900    -0.1310 c6         1 9EK       0.161800
     15 N2           1.0280    -0.5390    -0.5630 n          1 9EK      -0.231400
     16 O3           0.7160    -0.4530     1.6690 o          1 9EK      -0.575100
     17 C4          -1.1300    -1.1590     0.3750 ca         1 9EK      -0.176600
     18 C5          -2.1570    -0.2960     0.6320 ca         1 9EK       0.025000
     19 C6          -2.6490    -3.0210    -0.0650 ca         1 9EK      -0.206000
     20 N12         -5.5980    -1.2330     0.4170 na         1 9EK       0.028500
     21 N13         -5.0260    -2.3890     0.1290 nc         1 9EK      -0.278400
     22 N15         -6.2560     1.6910     0.6660 n          1 9EK      -0.418800
     23 C17         -7.8550     2.4540    -0.8620 c5         1 9EK      -0.094900
     24 C18         -7.9580     3.2870     0.4100 c5         1 9EK      -0.094900
     25 O20         -4.3040     1.7660     1.7840 o          1 9EK      -0.577100
     26 C23          5.1410     0.4400    -0.2320 ca         1 9EK       0.301000
     27 C25          4.7020    -0.8880    -0.1580 ca         1 9EK      -0.161000
     28 C26          2.8230     1.1140    -0.4860 ca         1 9EK      -0.068500
     29 N28          6.4900     0.7790    -0.1880 nh         1 9EK      -0.791400
     30 C29          6.8810     1.9130     0.6390 c6         1 9EK       0.161800
     31 O31          9.2130     1.3180     0.3860 os         1 9EK      -0.445000
     32 H1          -6.5950     0.6960    -1.1770 h1         1 9EK       0.054200
     33 H2          -7.8800     0.4880     0.0280 h1         1 9EK       0.054200
     34 H3          -6.6810     3.1030     2.1820 h1         1 9EK       0.054200
     35 H4          -5.8640     3.7600     0.7630 h1         1 9EK       0.054200
     36 H5           3.0430    -2.2390    -0.2040 ha         1 9EK       0.120000
     37 H6           4.4500     2.4760    -0.4770 ha         1 9EK       0.114000
     38 H7           0.9060     0.0430    -2.5590 h1         1 9EK       0.039700
     39 H8           0.9160    -1.7090    -2.3170 h1         1 9EK       0.039700
     40 H9          -0.5340    -0.7620    -1.9520 h1         1 9EK       0.039700
     41 H10          8.2760     2.7720    -0.7470 h1         1 9EK       0.052200
     42 H11          8.5950     3.1640     0.9520 h1         1 9EK       0.052200
     43 H12          9.5880    -0.5390    -0.3320 h1         1 9EK       0.052200
     44 H13          8.8670     0.5710    -1.5090 h1         1 9EK       0.052200
     45 H14          7.2310    -1.0520    -0.8760 h1         1 9EK       0.048200
     46 H15          7.4800    -0.7830     0.8540 h1         1 9EK       0.048200
     47 H16         -1.9580     0.7330     0.9020 ha         1 9EK       0.149000
     48 H17         -2.8360    -4.0590    -0.3120 ha         1 9EK       0.131000
     49 H18         -0.5080    -4.1830    -0.3660 ho         1 9EK       0.467000
     50 H19         -6.6050    -1.2050     0.4840 hn         1 9EK       0.375000
     51 H20         -7.2390     2.9650    -1.6050 hc         1 9EK       0.058450
     52 H21         -8.8190     2.2320    -1.3160 hc         1 9EK       0.058450
     53 H22         -8.7770     2.9220     1.0340 hc         1 9EK       0.058450
     54 H23         -8.1310     4.3460     0.2200 hc         1 9EK       0.058450
     55 H24          5.4010    -1.6990    -0.0110 ha         1 9EK       0.114000
     56 H25          2.0940     1.9040    -0.6190 ha         1 9EK       0.120000
     57 H26          6.8400     1.6470     1.7050 h1         1 9EK       0.048200
     58 H27          6.2040     2.7510     0.4890 h1         1 9EK       0.048200
     59 O8          -0.2720    -3.2750    -0.1400 oh         1 9EK      -0.530100
     60 C27          0.5520    -0.7620    -1.9160 c3         1 9EK       0.105300
@<TRIPOS>BOND
     1     1    15 1   
     2     1    16 2   
     3     1    17 1   
     4     2    17 ar  
     5     2    19 ar  
     6     2    59 1   
     7     3     4 ar  
     8     3    19 ar  
     9     3    21 2   
    10     4     5 2   
    11     4    18 ar  
    12     5     6 1   
    13     5    20 1   
    14     6    22 1   
    15     6    25 2   
    16     7    22 1   
    17     7    23 1   
    18     7    32 1   
    19     7    33 1   
    20     8    22 1   
    21     8    24 1   
    22     8    34 1   
    23     8    35 1   
    24     9    10 ar  
    25     9    15 1   
    26     9    28 ar  
    27    10    27 ar  
    28    10    36 1   
    29    11    26 ar  
    30    11    28 ar  
    31    11    37 1   
    32    12    30 1   
    33    12    31 1   
    34    12    41 1   
    35    12    42 1   
    36    13    14 1   
    37    13    31 1   
    38    13    43 1   
    39    13    44 1   
    40    14    29 1   
    41    14    45 1   
    42    14    46 1   
    43    15    60 1   
    44    17    18 ar  
    45    18    47 1   
    46    19    48 1   
    47    20    21 1   
    48    20    50 1   
    49    23    24 1   
    50    23    51 1   
    51    23    52 1   
    52    24    53 1   
    53    24    54 1   
    54    26    27 ar  
    55    26    29 1   
    56    27    55 1   
    57    28    56 1   
    58    29    30 1   
    59    30    57 1   
    60    30    58 1   
    61    38    60 1   
    62    39    60 1   
    63    40    60 1   
    64    49    59 1   
@<TRIPOS>SUBSTRUCTURE
     1 9EK         1 TEMP              0 ****  ****    0 ROOT
