@<TRIPOS>MOLECULE
9EK
   60    64     1     0     0
SMALL
No Charge or Current Charge


@<TRIPOS>ATOM
      1 C1           0.2600    -0.2840    -0.0090 c          1 9EK       0.632700
      2 C7          -1.2810    -2.2560    -0.5520 ca         1 9EK       0.172100
      3 C9          -3.6850    -1.9870    -0.4060 ca         1 9EK      -0.035000
      4 C10         -3.5130    -0.6860    -0.0050 ca         1 9EK      -0.126000
      5 C11         -4.8340    -0.1510     0.1970 cc         1 9EK      -0.152300
      6 C14         -5.1310     1.2420     0.6750 c          1 9EK       0.636300
      7 C16         -7.6670     0.9800     0.2050 c5         1 9EK       0.097500
      8 C19         -6.8240     3.0050     1.3150 c5         1 9EK       0.097500
      9 C21          2.6430    -0.2820    -0.8250 ca         1 9EK      -0.084000
     10 C22          3.2390    -0.7760     0.3540 ca         1 9EK      -0.068500
     11 C24          4.7330     0.8940    -1.3200 ca         1 9EK      -0.161000
     12 C30          8.7030     2.1980    -0.0050 c6         1 9EK       0.147100
     13 C32          9.0770    -0.0810     0.6670 c6         1 9EK       0.147100
     14 C33          7.5530    -0.3200     0.8940 c6         1 9EK       0.161800
     15 N2           1.2240    -0.4500    -1.0430 n          1 9EK      -0.231400
     16 O3           0.5350     0.3020     1.0340 o          1 9EK      -0.575100
     17 C4          -1.1030    -0.9010    -0.1710 ca         1 9EK      -0.176600
     18 C5          -2.2360    -0.1120     0.1320 ca         1 9EK       0.025000
     19 C6          -2.5750    -2.7960    -0.6790 ca         1 9EK      -0.206000
     20 N12         -5.6930    -1.2140    -0.1040 na         1 9EK       0.028500
     21 N13         -5.0160    -2.3770    -0.4860 nc         1 9EK      -0.278400
     22 N15         -6.4800     1.6790     0.7510 n          1 9EK      -0.418800
     23 C17         -8.7410     2.0980     0.2160 c5         1 9EK      -0.094900
     24 C18         -8.3580     2.8910     1.4860 c5         1 9EK      -0.094900
     25 O20         -4.2410     2.0140     1.0100 o          1 9EK      -0.577100
     26 C23          5.3480     0.3380    -0.1840 ca         1 9EK       0.301000
     27 C25          4.5830    -0.4940     0.6550 ca         1 9EK      -0.161000
     28 C26          3.3900     0.6110    -1.6240 ca         1 9EK      -0.068500
     29 N28          6.7030     0.6330     0.1060 nh         1 9EK      -0.791400
     30 C29          7.1620     2.0600     0.1900 c6         1 9EK       0.161800
     31 O31          9.4170     1.3090     0.8850 os         1 9EK      -0.445000
     32 H1          -7.5050     0.6070    -0.8160 h1         1 9EK       0.054200
     33 H2          -7.9650     0.1500     0.8590 h1         1 9EK       0.054200
     34 H3          -6.3200     3.1950     2.2730 h1         1 9EK       0.054200
     35 H4          -6.5530     3.8050     0.6140 h1         1 9EK       0.054200
     36 H5           2.6660    -1.4040     1.0330 ha         1 9EK       0.120000
     37 H6           5.2970     1.5510    -1.9740 ha         1 9EK       0.114000
     38 H7           1.5370    -0.8270    -3.1090 h1         1 9EK       0.039700
     39 H8          -0.1270    -1.1190    -2.5710 h1         1 9EK       0.039700
     40 H9           0.4620     0.5540    -2.7450 h1         1 9EK       0.039700
     41 H10          8.9700     1.9600    -1.0450 h1         1 9EK       0.052200
     42 H11          9.0120     3.2340     0.1960 h1         1 9EK       0.052200
     43 H12          9.6590    -0.7070     1.3570 h1         1 9EK       0.052200
     44 H13          9.3500    -0.3630    -0.3600 h1         1 9EK       0.052200
     45 H14          7.3220    -1.3580     0.6110 h1         1 9EK       0.048200
     46 H15          7.3370    -0.2160     1.9670 h1         1 9EK       0.048200
     47 H16         -2.1080     0.9200     0.4470 ha         1 9EK       0.149000
     48 H17         -2.7210    -3.8320    -0.9740 ha         1 9EK       0.131000
     49 H18         -0.5390    -3.9680    -0.9730 ho         1 9EK       0.467000
     50 H19         -6.7050    -1.2140    -0.0510 hn         1 9EK       0.375000
     51 H20         -8.6660     2.7270    -0.6800 hc         1 9EK       0.058450
     52 H21         -9.7620     1.7000     0.2530 hc         1 9EK       0.058450
     53 H22         -8.6160     2.3360     2.3960 hc         1 9EK       0.058450
     54 H23         -8.8470     3.8700     1.5440 hc         1 9EK       0.058450
     55 H24          5.0170    -0.9090     1.5590 ha         1 9EK       0.114000
     56 H25          2.9390     1.0900    -2.4900 ha         1 9EK       0.120000
     57 H26          6.8930     2.4780     1.1710 h1         1 9EK       0.048200
     58 H27          6.6640     2.6790    -0.5690 h1         1 9EK       0.048200
     59 O8          -0.2080    -3.0710    -0.7580 oh         1 9EK      -0.530100
     60 C27          0.7420    -0.4640    -2.4460 c3         1 9EK       0.105300
@<TRIPOS>BOND
     1     1    15 1   
     2     1    16 2   
     3     1    17 1   
     4     2    17 ar  
     5     2    19 ar  
     6     2    59 1   
     7     3     4 ar  
     8     3    19 ar  
     9     3    21 2   
    10     4     5 2   
    11     4    18 ar  
    12     5     6 1   
    13     5    20 1   
    14     6    22 1   
    15     6    25 2   
    16     7    22 1   
    17     7    23 1   
    18     7    32 1   
    19     7    33 1   
    20     8    22 1   
    21     8    24 1   
    22     8    34 1   
    23     8    35 1   
    24     9    10 ar  
    25     9    15 1   
    26     9    28 ar  
    27    10    27 ar  
    28    10    36 1   
    29    11    26 ar  
    30    11    28 ar  
    31    11    37 1   
    32    12    30 1   
    33    12    31 1   
    34    12    41 1   
    35    12    42 1   
    36    13    14 1   
    37    13    31 1   
    38    13    43 1   
    39    13    44 1   
    40    14    29 1   
    41    14    45 1   
    42    14    46 1   
    43    15    60 1   
    44    17    18 ar  
    45    18    47 1   
    46    19    48 1   
    47    20    21 1   
    48    20    50 1   
    49    23    24 1   
    50    23    51 1   
    51    23    52 1   
    52    24    53 1   
    53    24    54 1   
    54    26    27 ar  
    55    26    29 1   
    56    27    55 1   
    57    28    56 1   
    58    29    30 1   
    59    30    57 1   
    60    30    58 1   
    61    38    60 1   
    62    39    60 1   
    63    40    60 1   
    64    49    59 1   
@<TRIPOS>SUBSTRUCTURE
     1 9EK         1 TEMP              0 ****  ****    0 ROOT
