@<TRIPOS>MOLECULE
9EL
   43    46     1     0     0
SMALL
abcg2


@<TRIPOS>ATOM
      1 C1          -4.0000    -0.7290    -1.1670 ca         1 9EL       0.210000
      2 C2          -3.1030    -0.0850    -0.3330 ca         1 9EL      -0.119300
      3 C3          -3.6270     0.7120     0.6840 ca         1 9EL      -0.085000
      4 C4          -4.9870     0.8440     0.8380 ca         1 9EL       0.109000
      5 C5          -5.8570     0.1880    -0.0170 ca         1 9EL       0.170000
      6 C6          -5.3720    -0.6080    -1.0310 ca         1 9EL      -0.183000
      7 F7          -3.5410    -1.5040    -2.1580 f          1 9EL      -0.159000
      8 F8          -7.1710     0.3330     0.1480 f          1 9EL      -0.151000
      9 F9          -5.4870     1.6090     1.8130 f          1 9EL      -0.156000
     10 C10         -1.6180    -0.2540    -0.4770 c6         1 9EL       0.227600
     11 O11         -1.0450     1.0450    -0.4120 os         1 9EL      -0.340100
     12 C12          0.3000     1.1140    -0.3500 ca         1 9EL       0.165100
     13 C13          1.0910     0.0370    -0.0170 ca         1 9EL      -0.179300
     14 C14          0.4670    -1.2770     0.3570 c6         1 9EL      -0.028100
     15 C15         -1.0270    -1.1470     0.6140 c6         1 9EL       0.135500
     16 N16         -1.6570    -2.4510     0.5520 n8         1 9EL      -0.996200
     17 C17          2.5020     0.2030    -0.0360 ca         1 9EL       0.066000
     18 C20          3.0560     1.4700    -0.3610 ca         1 9EL      -0.107000
     19 C21          2.1960     2.5530    -0.6580 ca         1 9EL      -0.050000
     20 C22          0.8470     2.3820    -0.6580 ca         1 9EL      -0.136000
     21 C23          3.3740    -0.8740     0.2540 ca         1 9EL      -0.225000
     22 C24          4.7360    -0.7080     0.2220 ca         1 9EL       0.187100
     23 C25          5.2810     0.5650    -0.1040 ca         1 9EL      -0.053000
     24 C26          4.4510     1.6230    -0.3860 ca         1 9EL      -0.007000
     25 O27          5.6400    -1.6570     0.4720 os         1 9EL      -0.327100
     26 C28          5.1860    -2.9550     0.8160 c3         1 9EL       0.145900
     27 C30          6.6930     0.7280    -0.1360 cg         1 9EL       0.338000
     28 N31          7.8370     0.8700    -0.1760 n1         1 9EL      -0.454000
     29 H1          -2.9700     1.2390     1.3650 ha         1 9EL       0.148000
     30 H2          -6.0460    -1.1220    -1.7040 ha         1 9EL       0.157000
     31 H3          -1.3740    -0.7020    -1.4460 h1         1 9EL       0.085700
     32 H4           0.6250    -2.0140    -0.4380 hc         1 9EL       0.061200
     33 H5           0.9430    -1.6800     1.2550 hc         1 9EL       0.061200
     34 H6          -1.1740    -0.6410     1.5810 h1         1 9EL       0.037700
     35 H7          -1.1300    -3.1070     1.1150 hn         1 9EL       0.403000
     36 H8          -2.5770    -2.4120     0.9710 hn         1 9EL       0.403000
     37 H10          2.6230     3.5180    -0.9000 ha         1 9EL       0.121000
     38 H11          0.1800     3.2000    -0.8980 ha         1 9EL       0.134000
     39 H12          2.9570    -1.8400     0.4970 ha         1 9EL       0.122000
     40 H13          4.8750     2.5870    -0.6370 ha         1 9EL       0.128000
     41 H14          6.0760    -3.5590     0.9690 h1         1 9EL       0.046033
     42 H15          4.6000    -2.9440     1.7380 h1         1 9EL       0.046033
     43 H16          4.5870    -3.3960     0.0160 h1         1 9EL       0.046033
@<TRIPOS>BOND
     1     1     2 ar  
     2     1     6 ar  
     3     1     7 1   
     4     2     3 ar  
     5     2    10 1   
     6     3     4 ar  
     7     3    29 1   
     8     4     5 ar  
     9     4     9 1   
    10     5     6 ar  
    11     5     8 1   
    12     6    30 1   
    13    10    11 1   
    14    10    15 1   
    15    10    31 1   
    16    11    12 1   
    17    12    13 ar  
    18    12    20 ar  
    19    13    14 1   
    20    13    17 ar  
    21    14    15 1   
    22    14    32 1   
    23    14    33 1   
    24    15    16 1   
    25    15    34 1   
    26    16    35 1   
    27    16    36 1   
    28    17    18 ar  
    29    17    21 ar  
    30    18    19 ar  
    31    18    24 ar  
    32    19    20 ar  
    33    19    37 1   
    34    20    38 1   
    35    21    22 ar  
    36    21    39 1   
    37    22    23 ar  
    38    22    25 1   
    39    23    24 ar  
    40    23    27 1   
    41    24    40 1   
    42    25    26 1   
    43    26    41 1   
    44    26    42 1   
    45    26    43 1   
    46    27    28 3   
@<TRIPOS>SUBSTRUCTURE
     1 9EL         1 TEMP              0 ****  ****    0 ROOT
