@<TRIPOS>MOLECULE
9EL
   43    46     1     0     0
SMALL
No Charge or Current Charge


@<TRIPOS>ATOM
      1 C1          -4.0830    -0.5970    -1.3050 ca         1 9EL       0.210000
      2 C2          -3.1860    -0.1130    -0.3260 ca         1 9EL      -0.119300
      3 C3          -3.7020     0.5520     0.8090 ca         1 9EL      -0.085000
      4 C4          -5.0890     0.7230     0.9590 ca         1 9EL       0.109000
      5 C5          -5.9700     0.2320    -0.0210 ca         1 9EL       0.170000
      6 C6          -5.4680    -0.4270    -1.1530 ca         1 9EL      -0.183000
      7 F7          -3.6220    -1.2330    -2.4060 f          1 9EL      -0.159000
      8 F8          -7.3060     0.3930     0.1180 f          1 9EL      -0.151000
      9 F9          -5.5670     1.3620     2.0510 f          1 9EL      -0.156000
     10 C10         -1.6680    -0.2930    -0.4870 c6         1 9EL       0.227600
     11 O11         -1.0640     1.0160    -0.4710 os         1 9EL      -0.340100
     12 C12          0.3090     1.1270    -0.4310 ca         1 9EL       0.165100
     13 C13          1.1370     0.0380    -0.0600 ca         1 9EL      -0.179300
     14 C14          0.4900    -1.2990     0.3570 c6         1 9EL      -0.028100
     15 C15         -1.0290    -1.1850     0.6180 c6         1 9EL       0.135500
     16 N16         -1.6450    -2.5380     0.7150 n8         1 9EL      -0.996200
     17 C17          2.5490     0.2090    -0.0770 ca         1 9EL       0.066000
     18 C20          3.0970     1.4680    -0.4200 ca         1 9EL      -0.107000
     19 C21          2.2560     2.5440    -0.7510 ca         1 9EL      -0.050000
     20 C22          0.8670     2.3690    -0.7580 ca         1 9EL      -0.136000
     21 C23          3.4310    -0.8520     0.2360 ca         1 9EL      -0.225000
     22 C24          4.8310    -0.6620     0.2210 ca         1 9EL       0.187100
     23 C25          5.3580     0.6010    -0.1130 ca         1 9EL      -0.053000
     24 C26          4.4910     1.6590    -0.4340 ca         1 9EL      -0.007000
     25 O27          5.7100    -1.6890     0.5250 os         1 9EL      -0.327100
     26 C28          5.2690    -3.0110     0.8810 c3         1 9EL       0.145900
     27 C30          6.7770     0.8240    -0.1370 cg         1 9EL       0.338000
     28 N31          7.9280     1.0220    -0.1600 n1         1 9EL      -0.454000
     29 H1          -3.0310     0.9420     1.5710 ha         1 9EL       0.148000
     30 H2          -6.1480    -0.8040    -1.9110 ha         1 9EL       0.157000
     31 H3          -1.4470    -0.7490    -1.4620 h1         1 9EL       0.085700
     32 H4           0.6770    -2.0420    -0.4310 hc         1 9EL       0.061200
     33 H5           0.9630    -1.6810     1.2720 hc         1 9EL       0.061200
     34 H6          -1.1790    -0.6890     1.5890 h1         1 9EL       0.037700
     35 H7          -1.2390    -3.0340     1.5170 hn         1 9EL       0.403000
     36 H8          -2.6330    -2.4360     0.9750 hn         1 9EL       0.403000
     37 H10          2.6750     3.5140    -1.0120 ha         1 9EL       0.121000
     38 H11          0.2170     3.1980    -1.0270 ha         1 9EL       0.134000
     39 H12          3.0320    -1.8280     0.4820 ha         1 9EL       0.122000
     40 H13          4.9010     2.6320    -0.6960 ha         1 9EL       0.128000
     41 H14          6.1330    -3.6580     1.0820 h1         1 9EL       0.046033
     42 H15          4.6460    -2.9860     1.7840 h1         1 9EL       0.046033
     43 H16          4.6910    -3.4630     0.0640 h1         1 9EL       0.046033
@<TRIPOS>BOND
     1     1     2 ar  
     2     1     6 ar  
     3     1     7 1   
     4     2     3 ar  
     5     2    10 1   
     6     3     4 ar  
     7     3    29 1   
     8     4     5 ar  
     9     4     9 1   
    10     5     6 ar  
    11     5     8 1   
    12     6    30 1   
    13    10    11 1   
    14    10    15 1   
    15    10    31 1   
    16    11    12 1   
    17    12    13 ar  
    18    12    20 ar  
    19    13    14 1   
    20    13    17 ar  
    21    14    15 1   
    22    14    32 1   
    23    14    33 1   
    24    15    16 1   
    25    15    34 1   
    26    16    35 1   
    27    16    36 1   
    28    17    18 ar  
    29    17    21 ar  
    30    18    19 ar  
    31    18    24 ar  
    32    19    20 ar  
    33    19    37 1   
    34    20    38 1   
    35    21    22 ar  
    36    21    39 1   
    37    22    23 ar  
    38    22    25 1   
    39    23    24 ar  
    40    23    27 1   
    41    24    40 1   
    42    25    26 1   
    43    26    41 1   
    44    26    42 1   
    45    26    43 1   
    46    27    28 3   
@<TRIPOS>SUBSTRUCTURE
     1 9EL         1 TEMP              0 ****  ****    0 ROOT
