@<TRIPOS>MOLECULE
9EM
   63    67     1     0     0
SMALL
No Charge or Current Charge


@<TRIPOS>ATOM
      1 C15          4.4930     2.4100    -0.8150 c3         1 9EM      -0.099600
      2 C19          5.5840     0.5860    -2.1690 c3         1 9EM      -0.099600
      3 C23          3.8850     0.0150    -0.3570 c          1 9EM       0.557000
      4 C11          4.3170     0.5810     2.0180 c6         1 9EM       0.103000
      5 C34          0.1190    -2.4750     2.0470 ca         1 9EM      -0.070000
      6 C27          2.4110    -1.7540     2.4330 ca         1 9EM      -0.095000
      7 C33         -0.0000    -1.5580     0.9840 ca         1 9EM      -0.020800
      8 O1           7.8600     1.9870    -0.9230 o          1 9EM      -0.593100
      9 C2           7.5410     1.3390     0.0620 c          1 9EM       0.610100
     10 C3           8.6300     0.9270     1.0590 c3         1 9EM      -0.179100
     11 N7           6.1940     0.9520     0.3200 n          1 9EM      -0.416800
     12 C8           5.8110     0.4370     1.6730 c6         1 9EM       0.080000
     13 C14          5.0910     0.9720    -0.7230 c6         1 9EM       0.067400
     14 O24          3.3630    -0.7030    -1.2020 o          1 9EM      -0.539000
     15 N25          3.4530    -0.0310     0.9910 n          1 9EM      -0.247400
     16 C26          2.2880    -0.7650     1.4340 ca         1 9EM      -0.054000
     17 C29          1.3240    -2.5820     2.7560 ca         1 9EM      -0.110000
     18 C31          1.0990    -0.7310     0.6730 ca         1 9EM      -0.083000
     19 C36         -1.2420    -1.4560     0.2070 cc         1 9EM      -0.020300
     20 C37         -1.7430    -0.2720    -0.2810 cd         1 9EM      -0.218000
     21 C39         -2.9680    -0.5340    -0.9730 cd         1 9EM      -0.068200
     22 C40         -3.2360    -1.8920    -0.8320 cc         1 9EM      -0.221000
     23 C41         -4.3250    -2.7580    -1.0830 cc         1 9EM       0.451900
     24 N42         -5.5140    -2.2730    -1.4840 nv         1 9EM      -1.053900
     25 N45         -4.2960    -4.0460    -0.8280 nd         1 9EM      -0.307000
     26 C46         -3.0950    -4.5090    -0.2630 cd         1 9EM       0.141900
     27 N48         -2.0450    -3.7580     0.1220 nc         1 9EM      -0.304800
     28 N49         -2.1770    -2.4170    -0.1530 na         1 9EM       0.305900
     29 C50         -3.7380     0.4420    -1.7270 cd         1 9EM      -0.066800
     30 C51         -4.5170     0.1640    -2.8090 cc         1 9EM      -0.229000
     31 C53         -4.9570     1.3920    -3.3100 cc         1 9EM       0.248900
     32 N55         -4.5170     2.4330    -2.6350 nd         1 9EM      -0.507800
     33 N56         -3.7270     1.8540    -1.6450 na         1 9EM       0.120800
     34 C57         -3.1240     2.7320    -0.6210 c3         1 9EM       0.014600
     35 C60         -3.8000     2.6700     0.7650 c3         1 9EM       0.285000
     36 F61         -3.7160     1.4390     1.3150 f          1 9EM      -0.108333
     37 F62         -3.2090     3.5400     1.6150 f          1 9EM      -0.108333
     38 F63         -5.1100     3.0000     0.6830 f          1 9EM      -0.108333
     39 H1           5.2530     3.1380    -1.1240 hc         1 9EM       0.056367
     40 H2           3.6770     2.4580    -1.5470 hc         1 9EM       0.056367
     41 H3           4.0900     2.7530     0.1440 hc         1 9EM       0.056367
     42 H4           6.2640     1.3240    -2.6050 hc         1 9EM       0.056367
     43 H5           6.0950    -0.3840    -2.1660 hc         1 9EM       0.056367
     44 H6           4.7520     0.5190    -2.8810 hc         1 9EM       0.056367
     45 H7           4.1310     0.1400     3.0060 h1         1 9EM       0.053700
     46 H8           4.0650     1.6470     2.1020 h1         1 9EM       0.053700
     47 H9          -0.7160    -3.1140     2.3220 ha         1 9EM       0.132000
     48 H10          3.3490    -1.8940     2.9650 ha         1 9EM       0.120000
     49 H11          8.4830     1.4780     1.9940 hc         1 9EM       0.060367
     50 H12          8.4930    -0.1190     1.3560 hc         1 9EM       0.060367
     51 H13          9.6380     1.1120     0.6720 hc         1 9EM       0.060367
     52 H14          6.3750     0.9700     2.4500 h1         1 9EM       0.056700
     53 H15          6.0880    -0.6250     1.7360 h1         1 9EM       0.056700
     54 H16          1.4210    -3.3180     3.5510 ha         1 9EM       0.118000
     55 H17          1.0240    -0.0390    -0.1620 ha         1 9EM       0.125000
     56 H18         -1.2380     0.6790    -0.1890 ha         1 9EM       0.209000
     57 H19         -6.3320    -2.8560    -1.3350 hn         1 9EM       0.513500
     58 H20         -5.6500    -1.2690    -1.4090 hn         1 9EM       0.513500
     59 H21         -3.0470    -5.5760    -0.0810 h5         1 9EM       0.058100
     60 H22         -4.6960    -0.7870    -3.2950 ha         1 9EM       0.154000
     61 H23         -5.5770     1.5590    -4.1820 h4         1 9EM       0.044100
     62 H24         -2.0550     2.5290    -0.5350 h1         1 9EM       0.105200
     63 H25         -3.2030     3.7650    -0.9800 h1         1 9EM       0.105200
@<TRIPOS>BOND
     1     1    13 1   
     2     1    39 1   
     3     1    40 1   
     4     1    41 1   
     5     2    13 1   
     6     2    42 1   
     7     2    43 1   
     8     2    44 1   
     9     3    13 1   
    10     3    14 2   
    11     3    15 1   
    12     4    12 1   
    13     4    15 1   
    14     4    45 1   
    15     4    46 1   
    16     5     7 ar  
    17     5    17 ar  
    18     5    47 1   
    19     6    16 ar  
    20     6    17 ar  
    21     6    48 1   
    22     7    18 ar  
    23     7    19 1   
    24     8     9 2   
    25     9    10 1   
    26     9    11 1   
    27    10    49 1   
    28    10    50 1   
    29    10    51 1   
    30    11    12 1   
    31    11    13 1   
    32    12    52 1   
    33    12    53 1   
    34    15    16 1   
    35    16    18 ar  
    36    17    54 1   
    37    18    55 1   
    38    19    20 2   
    39    19    28 1   
    40    20    21 1   
    41    20    56 1   
    42    21    22 2   
    43    21    29 1   
    44    22    23 1   
    45    22    28 1   
    46    23    24 1   
    47    23    25 2   
    48    24    57 1   
    49    24    58 1   
    50    25    26 1   
    51    26    27 2   
    52    26    59 1   
    53    27    28 1   
    54    29    30 2   
    55    29    33 1   
    56    30    31 1   
    57    30    60 1   
    58    31    32 2   
    59    31    61 1   
    60    32    33 1   
    61    33    34 1   
    62    34    35 1   
    63    34    62 1   
    64    34    63 1   
    65    35    36 1   
    66    35    37 1   
    67    35    38 1   
@<TRIPOS>SUBSTRUCTURE
     1 9EM         1 TEMP              0 ****  ****    0 ROOT
