@<TRIPOS>MOLECULE
9EM
   63    67     1     0     0
SMALL
abcg2


@<TRIPOS>ATOM
      1 C15          4.9660     0.4810    -2.2400 c3         1 9EM      -0.099600
      2 C19          6.8080    -0.9750    -1.2760 c3         1 9EM      -0.099600
      3 C23          4.4780    -0.9910    -0.3870 c          1 9EM       0.557000
      4 C11          4.1870     0.5230     1.5320 c6         1 9EM       0.103000
      5 C34          0.2700    -2.6140     1.7820 ca         1 9EM      -0.070000
      6 C27          2.6460    -2.2760     2.0140 ca         1 9EM      -0.095000
      7 C33          0.2070    -1.6180     0.8040 ca         1 9EM      -0.020800
      8 O1           7.2540     2.1050    -1.5210 o          1 9EM      -0.593100
      9 C2           6.7980     1.9990    -0.3920 c          1 9EM       0.610100
     10 C3           7.1340     3.0410     0.6540 c3         1 9EM      -0.179100
     11 N7           5.9790     0.9790    -0.0200 n          1 9EM      -0.416800
     12 C8           5.6700     0.7130     1.3690 c6         1 9EM       0.080000
     13 C14          5.5980    -0.0910    -0.9590 c6         1 9EM       0.067400
     14 O24          4.2000    -2.0250    -0.9720 o          1 9EM      -0.539000
     15 N25          3.7640    -0.5720     0.6780 n          1 9EM      -0.247400
     16 C26          2.5890    -1.2860     1.0430 ca         1 9EM      -0.054000
     17 C29          1.4810    -2.9340     2.3780 ca         1 9EM      -0.110000
     18 C31          1.3850    -0.9610     0.4410 ca         1 9EM      -0.083000
     19 C36         -1.0420    -1.1910     0.1780 cc         1 9EM      -0.020300
     20 C37         -1.3970     0.0830    -0.2400 cd         1 9EM      -0.218000
     21 C39         -2.6840     0.0370    -0.7940 cd         1 9EM      -0.068200
     22 C40         -3.1030    -1.2850    -0.7050 cc         1 9EM      -0.221000
     23 C41         -4.2760    -2.0250    -1.0460 cc         1 9EM       0.451900
     24 N42         -5.3300    -1.4270    -1.5900 nv         1 9EM      -1.053900
     25 N45         -4.3240    -3.3250    -0.8150 nd         1 9EM      -0.307000
     26 C46         -3.2390    -3.8920    -0.2630 cd         1 9EM       0.141900
     27 N48         -2.1280    -3.3340     0.1010 nc         1 9EM      -0.304800
     28 N49         -2.0900    -2.0050    -0.1130 na         1 9EM       0.305900
     29 C50         -3.4320     1.1590    -1.3460 cd         1 9EM      -0.066800
     30 C51         -3.8350     1.4250    -2.6360 cc         1 9EM      -0.229000
     31 C53         -4.4890     2.6660    -2.5570 cc         1 9EM       0.248900
     32 N55         -4.4900     3.1310    -1.3260 nd         1 9EM      -0.507800
     33 N56         -3.8450     2.2170    -0.6010 na         1 9EM       0.120800
     34 C57         -3.7720     2.3650     0.8250 c3         1 9EM       0.014600
     35 C60         -5.0160     1.8280     1.5030 c3         1 9EM       0.285000
     36 F61         -5.2200     0.5360     1.2180 f          1 9EM      -0.108333
     37 F62         -4.9030     1.9350     2.8310 f          1 9EM      -0.108333
     38 F63         -6.1210     2.4850     1.1400 f          1 9EM      -0.108333
     39 H1           5.6980     1.0160    -2.8350 hc         1 9EM       0.056367
     40 H2           4.5660    -0.3300    -2.8450 hc         1 9EM       0.056367
     41 H3           4.1500     1.1650    -1.9990 hc         1 9EM       0.056367
     42 H4           7.5740    -0.3940    -1.7840 hc         1 9EM       0.056367
     43 H5           7.2390    -1.3910    -0.3640 hc         1 9EM       0.056367
     44 H6           6.5250    -1.8010    -1.9240 hc         1 9EM       0.056367
     45 H7           3.9610     0.2660     2.5680 h1         1 9EM       0.053700
     46 H8           3.6490     1.4420     1.2880 h1         1 9EM       0.053700
     47 H9          -0.6250    -3.1330     2.0910 ha         1 9EM       0.132000
     48 H10          3.5910    -2.5260     2.4800 ha         1 9EM       0.120000
     49 H11          6.2450     3.4480     1.1360 hc         1 9EM       0.060367
     50 H12          7.7770     2.6350     1.4360 hc         1 9EM       0.060367
     51 H13          7.6670     3.8540     0.1690 hc         1 9EM       0.060367
     52 H14          5.9980     1.5270     2.0060 h1         1 9EM       0.056700
     53 H15          6.1990    -0.1870     1.7080 h1         1 9EM       0.056700
     54 H16          1.5140    -3.7040     3.1360 ha         1 9EM       0.118000
     55 H17          1.3690    -0.1960    -0.3250 ha         1 9EM       0.125000
     56 H18         -0.7810     0.9630    -0.1440 ha         1 9EM       0.209000
     57 H19         -6.1320    -1.9790    -1.8450 hn         1 9EM       0.513500
     58 H20         -5.3330    -0.4510    -1.8330 hn         1 9EM       0.513500
     59 H21         -3.2880    -4.9610    -0.0950 h5         1 9EM       0.058100
     60 H22         -3.6510     0.8220    -3.5100 ha         1 9EM       0.154000
     61 H23         -4.9420     3.2340    -3.3550 h4         1 9EM       0.044100
     62 H24         -2.9060     1.8280     1.2080 h1         1 9EM       0.105200
     63 H25         -3.6500     3.4200     1.0690 h1         1 9EM       0.105200
@<TRIPOS>BOND
     1     1    13 1   
     2     1    39 1   
     3     1    40 1   
     4     1    41 1   
     5     2    13 1   
     6     2    42 1   
     7     2    43 1   
     8     2    44 1   
     9     3    13 1   
    10     3    14 2   
    11     3    15 1   
    12     4    12 1   
    13     4    15 1   
    14     4    45 1   
    15     4    46 1   
    16     5     7 ar  
    17     5    17 ar  
    18     5    47 1   
    19     6    16 ar  
    20     6    17 ar  
    21     6    48 1   
    22     7    18 ar  
    23     7    19 1   
    24     8     9 2   
    25     9    10 1   
    26     9    11 1   
    27    10    49 1   
    28    10    50 1   
    29    10    51 1   
    30    11    12 1   
    31    11    13 1   
    32    12    52 1   
    33    12    53 1   
    34    15    16 1   
    35    16    18 ar  
    36    17    54 1   
    37    18    55 1   
    38    19    20 2   
    39    19    28 1   
    40    20    21 1   
    41    20    56 1   
    42    21    22 2   
    43    21    29 1   
    44    22    23 1   
    45    22    28 1   
    46    23    24 1   
    47    23    25 2   
    48    24    57 1   
    49    24    58 1   
    50    25    26 1   
    51    26    27 2   
    52    26    59 1   
    53    27    28 1   
    54    29    30 2   
    55    29    33 1   
    56    30    31 1   
    57    30    60 1   
    58    31    32 2   
    59    31    61 1   
    60    32    33 1   
    61    33    34 1   
    62    34    35 1   
    63    34    62 1   
    64    34    63 1   
    65    35    36 1   
    66    35    37 1   
    67    35    38 1   
@<TRIPOS>SUBSTRUCTURE
     1 9EM         1 TEMP              0 ****  ****    0 ROOT
