@<TRIPOS>MOLECULE
9EN
   44    46     1     0     0
SMALL
No Charge or Current Charge


@<TRIPOS>ATOM
      1 C13         -0.3320     0.6420     0.6110 ca         1 9EN      -0.159000
      2 C15         -2.4930    -0.2380    -0.1580 ca         1 9EN       0.204000
      3 C17         -0.4150    -0.8060    -1.3230 ca         1 9EN      -0.158000
      4 C20         -6.1090     0.3600    -1.0600 c6         1 9EN       0.061100
      5 C22         -5.7810    -0.2340     1.6510 c6         1 9EN       0.061100
      6 C01          8.3290     0.2830     0.4670 c3         1 9EN      -0.178100
      7 C02          7.1300    -0.4680    -0.0970 c          1 9EN       0.603100
      8 O03          7.1880    -1.1230    -1.1270 o          1 9EN      -0.612100
      9 C05          4.6860    -0.9590     0.2770 c3         1 9EN       0.089000
     10 C06          4.0100    -0.3300    -0.9710 c5         1 9EN       0.129300
     11 C07          2.5980    -0.9120    -1.2590 c5         1 9EN       0.068000
     12 N08          1.7590     0.1200    -0.6350 n          1 9EN      -0.259400
     13 C09          2.4900     1.2830    -0.3580 c          1 9EN       0.698100
     14 O10          2.0410     2.3600     0.0050 o          1 9EN      -0.512000
     15 O11          3.7870     1.0810    -0.7270 os         1 9EN      -0.410100
     16 C12          0.3520    -0.0800    -0.3890 ca         1 9EN       0.007000
     17 C14         -1.7270     0.5460     0.7430 ca         1 9EN       0.190000
     18 C16         -1.8130    -0.9030    -1.1960 ca         1 9EN      -0.106000
     19 N18         -3.9090    -0.3490    -0.0390 nh         1 9EN      -0.773400
     20 C19         -4.7850    -0.4280    -1.2470 c6         1 9EN       0.189800
     21 S21         -7.1350    -0.2150     0.3790 ss         1 9EN      -0.443000
     22 C23         -4.5000    -0.9710     1.1840 c6         1 9EN       0.189800
     23 F24         -2.3300     1.2410     1.7390 f          1 9EN      -0.166000
     24 H1           0.2100     1.2600     1.3200 ha         1 9EN       0.158000
     25 H2           0.0670    -1.3110    -2.1560 ha         1 9EN       0.118000
     26 H3          -5.8740     1.4220    -0.9060 h1         1 9EN       0.078200
     27 H4          -6.7170     0.2810    -1.9720 h1         1 9EN       0.078200
     28 H5          -5.5280     0.8070     1.8970 h1         1 9EN       0.078200
     29 H6          -6.1700    -0.7100     2.5620 h1         1 9EN       0.078200
     30 H7           9.2280     0.1660    -0.1490 hc         1 9EN       0.062700
     31 H8           8.0600     1.3370     0.5950 hc         1 9EN       0.062700
     32 H9           8.5000    -0.0420     1.4990 hc         1 9EN       0.062700
     33 H10          6.0260     0.2150     1.4790 hn         1 9EN       0.325500
     34 H11          4.8410    -2.0310     0.0920 h1         1 9EN       0.066200
     35 H12          4.0060    -0.8700     1.1350 h1         1 9EN       0.066200
     36 H13          4.6780    -0.4530    -1.8340 h1         1 9EN       0.109700
     37 H14          2.4060    -0.9780    -2.3380 h1         1 9EN       0.068700
     38 H15          2.4450    -1.9020    -0.8090 h1         1 9EN       0.068700
     39 H16         -2.3660    -1.5020    -1.9140 ha         1 9EN       0.120000
     40 H17         -5.0170    -1.4780    -1.4780 h1         1 9EN       0.047700
     41 H18         -4.2640    -0.0100    -2.1210 h1         1 9EN       0.047700
     42 H19         -3.7730    -0.9610     2.0090 h1         1 9EN       0.047700
     43 H20         -4.7420    -2.0260     0.9880 h1         1 9EN       0.047700
     44 N04          5.9760    -0.3560     0.6430 ns         1 9EN      -0.501900
@<TRIPOS>BOND
     1     1    16 ar  
     2     1    17 ar  
     3     1    24 1   
     4     2    17 ar  
     5     2    18 ar  
     6     2    19 1   
     7     3    16 ar  
     8     3    18 ar  
     9     3    25 1   
    10     4    20 1   
    11     4    21 1   
    12     4    26 1   
    13     4    27 1   
    14     5    21 1   
    15     5    22 1   
    16     5    28 1   
    17     5    29 1   
    18     6     7 1   
    19     6    30 1   
    20     6    31 1   
    21     6    32 1   
    22     7     8 2   
    23     7    44 1   
    24     9    10 1   
    25     9    34 1   
    26     9    35 1   
    27     9    44 1   
    28    10    11 1   
    29    10    15 1   
    30    10    36 1   
    31    11    12 1   
    32    11    37 1   
    33    11    38 1   
    34    12    13 1   
    35    12    16 1   
    36    13    14 2   
    37    13    15 1   
    38    17    23 1   
    39    18    39 1   
    40    19    20 1   
    41    19    22 1   
    42    20    40 1   
    43    20    41 1   
    44    22    42 1   
    45    22    43 1   
    46    33    44 1   
@<TRIPOS>SUBSTRUCTURE
     1 9EN         1 TEMP              0 ****  ****    0 ROOT
