@<TRIPOS>MOLECULE
9EN
   44    46     1     0     0
SMALL
bcc


@<TRIPOS>ATOM
      1 C13         -0.3250     0.9840     0.4650 ca         1 9EN      -0.177000
      2 C15         -2.4540    -0.0250    -0.1880 ca         1 9EN       0.065600
      3 C17         -0.3800    -0.6520    -1.2890 ca         1 9EN      -0.176000
      4 C20         -6.0690    -0.0610    -1.0360 c6         1 9EN       0.013200
      5 C22         -5.6690    -0.3730     1.6280 c6         1 9EN       0.013200
      6 C01          8.1620    -0.0590     0.6380 c3         1 9EN      -0.178100
      7 C02          6.9460    -0.7280     0.0520 c          1 9EN       0.670100
      8 O03          7.0240    -1.5200    -0.8780 o          1 9EN      -0.612100
      9 C05          4.5150    -0.9630     0.2000 c3         1 9EN       0.089000
     10 C06          3.9310    -0.2480    -1.0100 c5         1 9EN       0.106100
     11 C07          2.5120    -0.7110    -1.3280 c5         1 9EN       0.068000
     12 N08          1.7380     0.3100    -0.6500 n          1 9EN      -0.419000
     13 C09          2.4980     1.4190    -0.4210 c          1 9EN       0.840600
     14 O10          2.1480     2.5010    -0.0240 o          1 9EN      -0.587500
     15 O11          3.7740     1.1470    -0.7190 os         1 9EN      -0.386900
     16 C12          0.3490     0.2300    -0.4970 ca         1 9EN       0.099600
     17 C14         -1.6900     0.8540     0.5800 ca         1 9EN       0.154900
     18 C16         -1.7520    -0.7800    -1.1220 ca         1 9EN      -0.124000
     19 N18         -3.8440    -0.0850    -0.0030 nh         1 9EN      -0.635000
     20 C19         -4.6170    -0.4820    -1.1670 c6         1 9EN       0.189800
     21 S21         -6.8820    -0.8580     0.3730 ss         1 9EN      -0.347200
     22 C23         -4.2580    -0.7560     1.2260 c6         1 9EN       0.189800
     23 F24         -2.3150     1.6140     1.4920 f          1 9EN      -0.130900
     24 H1           0.1890     1.6750     1.1150 ha         1 9EN       0.176000
     25 H2           0.1070    -1.2560    -2.0420 ha         1 9EN       0.136000
     26 H3          -6.1450     1.0240    -0.9370 h1         1 9EN       0.078200
     27 H4          -6.6200    -0.3600    -1.9270 h1         1 9EN       0.078200
     28 H5          -5.7330     0.7020     1.8060 h1         1 9EN       0.078200
     29 H6          -5.9460    -0.8860     2.5490 h1         1 9EN       0.078200
     30 H7           8.7330     0.4200    -0.1560 hc         1 9EN       0.062700
     31 H8           7.9310     0.6850     1.3980 hc         1 9EN       0.062700
     32 H9           8.8050    -0.8170     1.0870 hc         1 9EN       0.062700
     33 H10          5.7590     0.2750     1.3660 hn         1 9EN       0.325500
     34 H11          4.6390    -2.0170    -0.0540 h1         1 9EN       0.066200
     35 H12          3.8160    -0.9150     1.0370 h1         1 9EN       0.066200
     36 H13          4.5970    -0.3360    -1.8670 h1         1 9EN       0.109700
     37 H14          2.3140    -0.7210    -2.4020 h1         1 9EN       0.068700
     38 H15          2.3000    -1.7030    -0.9270 h1         1 9EN       0.068700
     39 H16         -2.2800    -1.4870    -1.7480 ha         1 9EN       0.138000
     40 H17         -4.5740    -1.5650    -1.3490 h1         1 9EN       0.047700
     41 H18         -4.1980     0.0150    -2.0450 h1         1 9EN       0.047700
     42 H19         -3.5850    -0.4730     2.0350 h1         1 9EN       0.047700
     43 H20         -4.1890    -1.8490     1.1180 h1         1 9EN       0.047700
     44 N04          5.7730    -0.4110     0.6300 ns         1 9EN      -0.568900
@<TRIPOS>BOND
     1     1    16 ar  
     2     1    17 ar  
     3     1    24 1   
     4     2    17 ar  
     5     2    18 ar  
     6     2    19 1   
     7     3    16 ar  
     8     3    18 ar  
     9     3    25 1   
    10     4    20 1   
    11     4    21 1   
    12     4    26 1   
    13     4    27 1   
    14     5    21 1   
    15     5    22 1   
    16     5    28 1   
    17     5    29 1   
    18     6     7 1   
    19     6    30 1   
    20     6    31 1   
    21     6    32 1   
    22     7     8 2   
    23     7    44 1   
    24     9    10 1   
    25     9    34 1   
    26     9    35 1   
    27     9    44 1   
    28    10    11 1   
    29    10    15 1   
    30    10    36 1   
    31    11    12 1   
    32    11    37 1   
    33    11    38 1   
    34    12    13 1   
    35    12    16 1   
    36    13    14 2   
    37    13    15 1   
    38    17    23 1   
    39    18    39 1   
    40    19    20 1   
    41    19    22 1   
    42    20    40 1   
    43    20    41 1   
    44    22    42 1   
    45    22    43 1   
    46    33    44 1   
@<TRIPOS>SUBSTRUCTURE
     1 9EN         1 TEMP              0 ****  ****    0 ROOT
