@<TRIPOS>MOLECULE
9EO
   56    60     1     0     0
SMALL
abcg2


@<TRIPOS>ATOM
      1 CAB          6.9800     0.8960    -0.1700 cc         1 9EO      -0.222000
      2 CAC          6.8420     0.1190     0.9540 cd         1 9EO       0.231900
      3 CAE          4.9110     0.2050     0.0550 cc         1 9EO       0.426300
      4 CAF          3.4830     0.1100    -0.2050 ce         1 9EO      -0.006000
      5 CAG          2.7750    -1.0250     0.0060 cd         1 9EO      -0.097400
      6 CAH          2.8370     1.3510    -0.6770 ca         1 9EO      -0.098800
      7 CAI          3.0050     2.5470     0.0210 ca         1 9EO      -0.089000
      8 CAJ          2.3890     3.7070    -0.4230 ca         1 9EO      -0.111500
      9 CAK          1.6230     3.6890    -1.5810 ca         1 9EO      -0.091000
     10 CAL          1.4740     2.5070    -2.2960 ca         1 9EO      -0.111500
     11 CAM          2.0760     1.3430    -1.8460 ca         1 9EO      -0.089000
     12 CAN          1.3310    -1.2020     0.1430 ca         1 9EO      -0.125800
     13 CAO          1.1030    -2.5750     0.3340 ca         1 9EO       0.096600
     14 CAQ          3.3650    -2.4010     0.0820 c          1 9EO       0.573200
     15 CAS          0.2590    -0.3300     0.2090 ca         1 9EO       0.007000
     16 CAT         -1.0240    -0.8250     0.4530 ca         1 9EO      -0.194600
     17 CAU         -1.2220    -2.1970     0.6080 ca         1 9EO      -0.043000
     18 CAV         -0.1600    -3.0900     0.5520 ca         1 9EO      -0.169000
     19 CAW         -2.1460     0.1580     0.4940 c          1 9EO       0.619700
     20 CAZ         -4.4010     0.6270     1.3210 c3         1 9EO       0.165000
     21 CBA         -5.1230     0.3180     2.6260 c3         1 9EO       0.148600
     22 CBC         -5.3180     0.4650     0.1260 ca         1 9EO      -0.089300
     23 CBD         -5.4400    -0.7450    -0.5500 ca         1 9EO      -0.089500
     24 CBE         -6.3200    -0.8730    -1.6160 ca         1 9EO      -0.113000
     25 CBF         -7.0950     0.2070    -2.0190 ca         1 9EO      -0.107000
     26 CBG         -6.9800     1.4180    -1.3490 ca         1 9EO      -0.113000
     27 CBH         -6.0960     1.5430    -0.2860 ca         1 9EO      -0.089500
     28 NAA          5.7430     0.9520    -0.7160 na         1 9EO      -0.276500
     29 NAD          5.5600    -0.2990     1.0820 nd         1 9EO      -0.630000
     30 NAP          2.3030    -3.2470     0.2800 ns         1 9EO      -0.411100
     31 NAY         -3.2140    -0.1920     1.2350 ns         1 9EO      -0.503900
     32 OAR          4.5100    -2.7610    -0.0810 o          1 9EO      -0.489000
     33 OAX         -2.0800     1.2240    -0.1010 o          1 9EO      -0.602100
     34 OBB         -5.4720    -1.0450     2.6350 oh         1 9EO      -0.663000
     35 H1           7.8280     1.3970    -0.6040 h4         1 9EO       0.158000
     36 H2           7.6040    -0.1420     1.6730 h4         1 9EO       0.040100
     37 H3           3.6030     2.5660     0.9240 ha         1 9EO       0.124500
     38 H4           2.5110     4.6270     0.1340 ha         1 9EO       0.119000
     39 H5           1.1480     4.5970    -1.9300 ha         1 9EO       0.117000
     40 H6           0.8890     2.4920    -3.2060 ha         1 9EO       0.119000
     41 H7           1.9590     0.4210    -2.4010 ha         1 9EO       0.124500
     42 H8           0.3930     0.7340     0.0780 ha         1 9EO       0.147000
     43 H9          -2.2160    -2.6000     0.7510 ha         1 9EO       0.115000
     44 H10         -0.3220    -4.1520     0.6760 ha         1 9EO       0.124000
     45 H11         -4.0950     1.6750     1.3760 h1         1 9EO       0.078700
     46 H12         -4.4580     0.5720     3.4600 h1         1 9EO       0.032200
     47 H13         -6.0010     0.9710     2.6960 h1         1 9EO       0.032200
     48 H14         -4.8380    -1.5960    -0.2540 ha         1 9EO       0.110500
     49 H15         -6.4020    -1.8210    -2.1330 ha         1 9EO       0.110500
     50 H16         -7.7780     0.1080    -2.8520 ha         1 9EO       0.110000
     51 H17         -7.5740     2.2690    -1.6580 ha         1 9EO       0.110500
     52 H18         -6.0050     2.4950     0.2260 ha         1 9EO       0.110500
     53 H19          5.4960     1.4380    -1.5650 hn         1 9EO       0.357000
     54 H21          2.4020    -4.2490     0.3340 hn         1 9EO       0.340500
     55 H22         -3.2020    -1.0490     1.7640 hn         1 9EO       0.326500
     56 H23         -5.7350    -1.2870     3.5280 ho         1 9EO       0.446000
@<TRIPOS>BOND
     1     1     2 2   
     2     1    28 1   
     3     1    35 1   
     4     2    29 1   
     5     2    36 1   
     6     3     4 1   
     7     3    28 1   
     8     3    29 2   
     9     4     5 2   
    10     4     6 1   
    11     5    12 1   
    12     5    14 1   
    13     6     7 ar  
    14     6    11 ar  
    15     7     8 ar  
    16     7    37 1   
    17     8     9 ar  
    18     8    38 1   
    19     9    10 ar  
    20     9    39 1   
    21    10    11 ar  
    22    10    40 1   
    23    11    41 1   
    24    12    13 ar  
    25    12    15 ar  
    26    13    18 ar  
    27    13    30 1   
    28    14    30 1   
    29    14    32 2   
    30    15    16 ar  
    31    15    42 1   
    32    16    17 ar  
    33    16    19 1   
    34    17    18 ar  
    35    17    43 1   
    36    18    44 1   
    37    19    31 1   
    38    19    33 2   
    39    20    21 1   
    40    20    22 1   
    41    20    31 1   
    42    20    45 1   
    43    21    34 1   
    44    21    46 1   
    45    21    47 1   
    46    22    23 ar  
    47    22    27 ar  
    48    23    24 ar  
    49    23    48 1   
    50    24    25 ar  
    51    24    49 1   
    52    25    26 ar  
    53    25    50 1   
    54    26    27 ar  
    55    26    51 1   
    56    27    52 1   
    57    28    53 1   
    58    30    54 1   
    59    31    55 1   
    60    34    56 1   
@<TRIPOS>SUBSTRUCTURE
     1 9EO         1 TEMP              0 ****  ****    0 ROOT
