@<TRIPOS>MOLECULE
9EO
   56    60     1     0     0
SMALL
No Charge or Current Charge


@<TRIPOS>ATOM
      1 CAB          6.9140     1.1090     0.3630 cc         1 9EO      -0.222000
      2 CAC          6.4210     0.7760     1.5980 cd         1 9EO       0.231900
      3 CAE          4.7480     0.5960     0.2380 cc         1 9EO       0.426300
      4 CAF          3.4550     0.2110    -0.3340 ce         1 9EO      -0.006000
      5 CAG          2.8500    -0.9960    -0.0460 cd         1 9EO      -0.097400
      6 CAH          2.7340     1.3230    -1.0550 ca         1 9EO      -0.098800
      7 CAI          3.0850     2.6830    -0.8690 ca         1 9EO      -0.089000
      8 CAJ          2.4060     3.7000    -1.5620 ca         1 9EO      -0.111500
      9 CAK          1.3730     3.3790    -2.4570 ca         1 9EO      -0.091000
     10 CAL          1.0240     2.0360    -2.6610 ca         1 9EO      -0.111500
     11 CAM          1.7010     1.0180    -1.9700 ca         1 9EO      -0.089000
     12 CAN          1.4280    -1.2500     0.2640 ca         1 9EO      -0.125800
     13 CAO          1.2400    -2.6150     0.3320 ca         1 9EO       0.096600
     14 CAQ          3.4940    -2.3380    -0.1610 c          1 9EO       0.573200
     15 CAS          0.3690    -0.3680     0.5280 ca         1 9EO       0.007000
     16 CAT         -0.9120    -0.9050     0.8250 ca         1 9EO      -0.194600
     17 CAU         -1.0820    -2.3230     0.8640 ca         1 9EO      -0.043000
     18 CAV          0.0040    -3.1890     0.6230 ca         1 9EO      -0.169000
     19 CAW         -2.0540     0.0480     1.0950 c          1 9EO       0.619700
     20 CAZ         -4.5090     0.2220     1.6470 c3         1 9EO       0.165000
     21 CBA         -5.3860    -0.5280     2.6910 c3         1 9EO       0.148600
     22 CBC         -5.2650     0.5400     0.3540 ca         1 9EO      -0.089300
     23 CBD         -5.6360    -0.4850    -0.5430 ca         1 9EO      -0.089500
     24 CBE         -6.3260    -0.1780    -1.7290 ca         1 9EO      -0.113000
     25 CBF         -6.6490     1.1550    -2.0310 ca         1 9EO      -0.107000
     26 CBG         -6.2810     2.1820    -1.1460 ca         1 9EO      -0.113000
     27 CBH         -5.5910     1.8760     0.0400 ca         1 9EO      -0.089500
     28 NAA          5.8490     0.9550    -0.5020 na         1 9EO      -0.276500
     29 NAD          5.0880     0.4280     1.5080 nd         1 9EO      -0.630000
     30 NAP          2.4690    -3.2130     0.0820 ns         1 9EO      -0.411100
     31 NAY         -3.2770    -0.5180     1.3630 ns         1 9EO      -0.503900
     32 OAR          4.6490    -2.6260    -0.4380 o          1 9EO      -0.489000
     33 OAX         -1.9050     1.2620     1.0790 o          1 9EO      -0.602100
     34 OBB         -5.5060    -1.9320     2.3840 oh         1 9EO      -0.663000
     35 H1           7.9060     1.4150     0.0520 h4         1 9EO       0.158000
     36 H2           6.9530     0.7520     2.5410 h4         1 9EO       0.040100
     37 H3           3.8680     2.9720    -0.1730 ha         1 9EO       0.124500
     38 H4           2.6790     4.7410    -1.4020 ha         1 9EO       0.119000
     39 H5           0.8490     4.1680    -2.9920 ha         1 9EO       0.117000
     40 H6           0.2300     1.7830    -3.3610 ha         1 9EO       0.119000
     41 H7           1.4250    -0.0160    -2.1640 ha         1 9EO       0.124500
     42 H8           0.5330     0.7080     0.5110 ha         1 9EO       0.147000
     43 H9          -2.0480    -2.7690     1.0910 ha         1 9EO       0.115000
     44 H10         -0.1170    -4.2690     0.6680 ha         1 9EO       0.124000
     45 H11         -4.2270     1.1760     2.1140 h1         1 9EO       0.078700
     46 H12         -4.9210    -0.4080     3.6790 h1         1 9EO       0.032200
     47 H13         -6.3760    -0.0540     2.7350 h1         1 9EO       0.032200
     48 H14         -5.3900    -1.5210    -0.3240 ha         1 9EO       0.110500
     49 H15         -6.6080    -0.9740    -2.4150 ha         1 9EO       0.110500
     50 H16         -7.1820     1.3930    -2.9490 ha         1 9EO       0.110000
     51 H17         -6.5290     3.2150    -1.3780 ha         1 9EO       0.110500
     52 H18         -5.3100     2.6810     0.7160 ha         1 9EO       0.110500
     53 H19          5.8530     1.0840    -1.5070 hn         1 9EO       0.357000
     54 H21          2.5990    -4.2170     0.0580 hn         1 9EO       0.340500
     55 H22         -3.3310    -1.5270     1.3770 hn         1 9EO       0.326500
     56 H23         -6.0940    -2.3260     3.0670 ho         1 9EO       0.446000
@<TRIPOS>BOND
     1     1     2 2   
     2     1    28 1   
     3     1    35 1   
     4     2    29 1   
     5     2    36 1   
     6     3     4 1   
     7     3    28 1   
     8     3    29 2   
     9     4     5 2   
    10     4     6 1   
    11     5    12 1   
    12     5    14 1   
    13     6     7 ar  
    14     6    11 ar  
    15     7     8 ar  
    16     7    37 1   
    17     8     9 ar  
    18     8    38 1   
    19     9    10 ar  
    20     9    39 1   
    21    10    11 ar  
    22    10    40 1   
    23    11    41 1   
    24    12    13 ar  
    25    12    15 ar  
    26    13    18 ar  
    27    13    30 1   
    28    14    30 1   
    29    14    32 2   
    30    15    16 ar  
    31    15    42 1   
    32    16    17 ar  
    33    16    19 1   
    34    17    18 ar  
    35    17    43 1   
    36    18    44 1   
    37    19    31 1   
    38    19    33 2   
    39    20    21 1   
    40    20    22 1   
    41    20    31 1   
    42    20    45 1   
    43    21    34 1   
    44    21    46 1   
    45    21    47 1   
    46    22    23 ar  
    47    22    27 ar  
    48    23    24 ar  
    49    23    48 1   
    50    24    25 ar  
    51    24    49 1   
    52    25    26 ar  
    53    25    50 1   
    54    26    27 ar  
    55    26    51 1   
    56    27    52 1   
    57    28    53 1   
    58    30    54 1   
    59    31    55 1   
    60    34    56 1   
@<TRIPOS>SUBSTRUCTURE
     1 9EO         1 TEMP              0 ****  ****    0 ROOT
