@<TRIPOS>MOLECULE
9EP
   43    44     1     0     0
SMALL
No Charge or Current Charge


@<TRIPOS>ATOM
      1 CAA          6.1880    -1.8530     0.6300 c          1 9EP       0.594100
      2 OAB          4.9410    -1.3250     0.4390 os         1 9EP      -0.447100
      3 CAC          4.7360    -0.4980    -0.7170 c3         1 9EP       0.246800
      4 CAD          3.2910    -0.0240    -0.6760 c2         1 9EP      -0.302400
      5 SAE          0.8380    -0.0690    -2.1030 ss         1 9EP      -0.575000
      6 CAF          2.8000     1.0140     0.0710 ce         1 9EP       0.114800
      7 CAG          3.6400     1.9090     1.0370 c          1 9EP       0.715200
      8 OAH          3.0370     2.7630     1.6830 o          1 9EP      -0.696000
      9 OAI          4.8530     1.7700     1.1380 o          1 9EP      -0.696000
     10 NAJ          1.4070     1.3490     0.0720 nu         1 9EP      -0.837200
     11 CAK          0.3360     0.5010    -0.4400 c6         1 9EP       0.413500
     12 CAL         -1.0220     1.2610    -0.5130 c3         1 9EP      -0.021300
     13 NAM         -2.1780     0.3810    -0.8490 ns         1 9EP      -0.492900
     14 CAN         -2.6340    -0.6600    -0.0710 c          1 9EP       0.606100
     15 CAO         -0.9510     2.4590    -1.4850 c          1 9EP       0.572900
     16 OAP         -1.7850     2.6800    -2.3620 o          1 9EP      -0.521100
     17 CAQ          6.2540    -2.6910     1.9010 c3         1 9EP      -0.158100
     18 CAR          2.3910    -0.8730    -1.5610 c6         1 9EP       0.169800
     19 OAS          7.1380    -1.6850    -0.1230 o          1 9EP      -0.519000
     20 CAT         -3.8200    -1.4410    -0.6500 c3         1 9EP      -0.093100
     21 OAU         -2.1350    -0.9240     1.0140 o          1 9EP      -0.586100
     22 CAV         -5.1500    -1.0500    -0.0490 cc         1 9EP      -0.182300
     23 CAW         -6.1380    -0.2860    -0.6180 cd         1 9EP      -0.130000
     24 SAX         -5.6090    -1.5610     1.5770 ss         1 9EP       0.213000
     25 CAY         -7.1490    -0.7180     1.4420 cc         1 9EP      -0.250000
     26 CAZ         -7.2660    -0.0990     0.2240 cd         1 9EP      -0.133000
     27 HAC          5.4300     0.3520    -0.7350 h1         1 9EP       0.064700
     28 HACA         4.9290    -1.0740    -1.6330 h1         1 9EP       0.064700
     29 HNAJ         1.1690     2.0540     0.7760 hn         1 9EP       0.530000
     30 HAK          0.2220    -0.3930     0.1930 h2         1 9EP       0.064700
     31 HAL         -1.2060     1.6870     0.4810 h1         1 9EP       0.103700
     32 HNAM        -2.6630     0.5400    -1.7270 hn         1 9EP       0.325500
     33 HAO         -0.0850     3.1440    -1.3420 h4         1 9EP       0.025200
     34 HAQ          5.4730    -3.4580     1.8610 hc         1 9EP       0.055700
     35 HAQA         7.2450    -3.1270     2.0700 hc         1 9EP       0.055700
     36 HAQB         5.9300    -2.0760     2.7480 hc         1 9EP       0.055700
     37 HAR          2.9240    -1.1840    -2.4710 h1         1 9EP       0.054200
     38 HARA         2.1160    -1.7890    -1.0170 h1         1 9EP       0.054200
     39 HAT         -3.8700    -1.2700    -1.7320 hc         1 9EP       0.070200
     40 HATA        -3.6520    -2.5080    -0.4630 hc         1 9EP       0.070200
     41 HAW         -6.0660     0.1360    -1.6160 ha         1 9EP       0.132000
     42 HAY         -7.8470    -0.7420     2.2690 h4         1 9EP       0.143000
     43 HAZ         -8.1380     0.4790    -0.0690 ha         1 9EP       0.126000
@<TRIPOS>BOND
     1     1     2 1   
     2     1    17 1   
     3     1    19 2   
     4     2     3 1   
     5     3     4 1   
     6     3    27 1   
     7     3    28 1   
     8     4     6 2   
     9     4    18 1   
    10     5    11 1   
    11     5    18 1   
    12     6     7 1   
    13     6    10 1   
    14     7     8 1   
    15     7     9 1   
    16    10    11 1   
    17    10    29 1   
    18    11    12 1   
    19    11    30 1   
    20    12    13 1   
    21    12    15 1   
    22    12    31 1   
    23    13    14 1   
    24    13    32 1   
    25    14    20 1   
    26    14    21 2   
    27    15    16 2   
    28    15    33 1   
    29    17    34 1   
    30    17    35 1   
    31    17    36 1   
    32    18    37 1   
    33    18    38 1   
    34    20    22 1   
    35    20    39 1   
    36    20    40 1   
    37    22    23 2   
    38    22    24 1   
    39    23    26 1   
    40    23    41 1   
    41    24    25 1   
    42    25    26 2   
    43    25    42 1   
    44    26    43 1   
@<TRIPOS>SUBSTRUCTURE
     1 9EP         1 TEMP              0 ****  ****    0 ROOT
