@<TRIPOS>MOLECULE
9EP
   43    44     1     0     0
SMALL
bcc


@<TRIPOS>ATOM
      1 CAA          6.5220    -1.7330     0.2250 c          1 9EP       0.643100
      2 OAB          5.2560    -1.3570     0.2750 os         1 9EP      -0.423900
      3 CAC          4.8720    -0.1640    -0.4590 c3         1 9EP       0.223600
      4 CAD          3.4000    -0.0040    -0.3040 c2         1 9EP      -0.302400
      5 SAE          1.0120    -0.4310    -1.6480 ss         1 9EP      -0.479200
      6 CAF          2.8080     1.0050     0.3800 ce         1 9EP       0.114800
      7 CAG          3.5180     2.1620     1.1160 c          1 9EP       0.925800
      8 OAH          2.7870     3.1420     1.3580 o          1 9EP      -0.801300
      9 OAI          4.7130     2.0310     1.4220 o          1 9EP      -0.801300
     10 NAJ          1.4510     1.1420     0.4830 nu         1 9EP      -0.782000
     11 CAK          0.4910     0.2250    -0.0160 c6         1 9EP       0.365600
     12 CAL         -0.8720     0.9010    -0.1750 c3         1 9EP      -0.021300
     13 NAM         -1.8940    -0.0780    -0.3950 ns         1 9EP      -0.559900
     14 CAN         -3.2000     0.1900    -0.1850 c          1 9EP       0.673100
     15 CAO         -0.8200     1.9400    -1.2850 c          1 9EP       0.572900
     16 OAP         -1.6200     1.9950    -2.1790 o          1 9EP      -0.521100
     17 CAQ          6.7870    -2.9800     1.0200 c3         1 9EP      -0.158100
     18 CAR          2.6000    -1.0550    -1.0240 c6         1 9EP       0.121900
     19 OAS          7.3760    -1.1370    -0.3890 o          1 9EP      -0.568000
     20 CAT         -4.1370    -0.9010    -0.6780 c3         1 9EP      -0.093100
     21 OAU         -3.5910     1.2110     0.3470 o          1 9EP      -0.586100
     22 CAV         -5.5330    -0.7430    -0.1890 cc         1 9EP      -0.037400
     23 CAW         -6.6350    -0.3770    -0.9020 cd         1 9EP      -0.148000
     24 SAX         -5.9420    -1.0210     1.4610 ss         1 9EP      -0.076800
     25 CAY         -7.5920    -0.6440     1.1880 cc         1 9EP      -0.123100
     26 CAZ         -7.8180    -0.3200    -0.1140 cd         1 9EP      -0.151000
     27 HAC          5.4240     0.6890    -0.0810 h1         1 9EP       0.064700
     28 HACA         5.1270    -0.3180    -1.5120 h1         1 9EP       0.064700
     29 HNAJ         1.1630     2.0320     0.8670 hn         1 9EP       0.474800
     30 HAK          0.3780    -0.6380     0.6510 h2         1 9EP       0.064700
     31 HAL         -1.0790     1.4390     0.7580 h1         1 9EP       0.103700
     32 HNAM        -1.6460    -0.9110    -0.9090 hn         1 9EP       0.325500
     33 HAO          0.0050     2.6660    -1.1990 h4         1 9EP       0.025200
     34 HAQ          5.8880    -3.4090     1.4520 hc         1 9EP       0.055700
     35 HAQA         7.2640    -3.7230     0.3800 hc         1 9EP       0.055700
     36 HAQB         7.4890    -2.7510     1.8220 hc         1 9EP       0.055700
     37 HAR          3.1420    -1.4070    -1.9030 h1         1 9EP       0.054200
     38 HARA         2.3990    -1.9340    -0.4070 h1         1 9EP       0.054200
     39 HAT         -4.1420    -0.8610    -1.7710 hc         1 9EP       0.070200
     40 HATA        -3.7310    -1.8820    -0.4160 hc         1 9EP       0.070200
     41 HAW         -6.6010    -0.1570    -1.9610 ha         1 9EP       0.150000
     42 HAY         -8.3030    -0.6820     1.9980 h4         1 9EP       0.161000
     43 HAZ         -8.7900    -0.0520    -0.5020 ha         1 9EP       0.144000
@<TRIPOS>BOND
     1     1     2 1   
     2     1    17 1   
     3     1    19 2   
     4     2     3 1   
     5     3     4 1   
     6     3    27 1   
     7     3    28 1   
     8     4     6 2   
     9     4    18 1   
    10     5    11 1   
    11     5    18 1   
    12     6     7 1   
    13     6    10 1   
    14     7     8 1   
    15     7     9 1   
    16    10    11 1   
    17    10    29 1   
    18    11    12 1   
    19    11    30 1   
    20    12    13 1   
    21    12    15 1   
    22    12    31 1   
    23    13    14 1   
    24    13    32 1   
    25    14    20 1   
    26    14    21 2   
    27    15    16 2   
    28    15    33 1   
    29    17    34 1   
    30    17    35 1   
    31    17    36 1   
    32    18    37 1   
    33    18    38 1   
    34    20    22 1   
    35    20    39 1   
    36    20    40 1   
    37    22    23 2   
    38    22    24 1   
    39    23    26 1   
    40    23    41 1   
    41    24    25 1   
    42    25    26 2   
    43    25    42 1   
    44    26    43 1   
@<TRIPOS>SUBSTRUCTURE
     1 9EP         1 TEMP              0 ****  ****    0 ROOT
