@<TRIPOS>MOLECULE
9EQ
   19    19     1     0     0
SMALL
No Charge or Current Charge


@<TRIPOS>ATOM
      1 C10         11.2190   -19.4660    35.8380 ca         1 9EQ       0.245100
      2 C01         10.7490   -18.1950    38.6940 c3         1 9EQ      -0.202100
      3 C02         10.7550   -17.4510    37.3600 c          1 9EQ       0.606700
      4 O03         10.8040   -16.2270    37.3480 o          1 9EQ      -0.576100
      5 C04         10.6230   -18.2030    36.0600 ca         1 9EQ      -0.385600
      6 C05          9.8430   -17.6470    35.0230 ca         1 9EQ       0.245100
      7 O06          9.2820   -16.4190    35.1630 oh         1 9EQ      -0.545100
      8 C07          9.6240   -18.3450    33.8290 ca         1 9EQ      -0.218500
      9 C08         10.1890   -19.6110    33.6360 ca         1 9EQ       0.003000
     10 C09         10.9910   -20.1620    34.6440 ca         1 9EQ      -0.218500
     11 O11         12.0620   -20.0360    36.7380 oh         1 9EQ      -0.545100
     12 H1          10.3450   -17.5700    39.4990 hc         1 9EQ       0.069033
     13 H2          10.2140   -19.1470    38.6010 hc         1 9EQ       0.069033
     14 H3          11.7780   -18.4650    38.9520 hc         1 9EQ       0.069033
     15 H4           9.7060   -16.0180    35.9610 ho         1 9EQ       0.497000
     16 H5           9.0120   -17.9010    33.0480 ha         1 9EQ       0.135500
     17 H6          10.0190   -20.1540    32.7090 ha         1 9EQ       0.119000
     18 H7          11.4520   -21.1340    34.4910 ha         1 9EQ       0.135500
     19 H8          12.6110   -19.3310    37.1390 ho         1 9EQ       0.497000
@<TRIPOS>BOND
     1     1     5 ar  
     2     1    10 ar  
     3     1    11 1   
     4     2     3 1   
     5     2    12 1   
     6     2    13 1   
     7     2    14 1   
     8     3     4 2   
     9     3     5 1   
    10     5     6 ar  
    11     6     7 1   
    12     6     8 ar  
    13     7    15 1   
    14     8     9 ar  
    15     8    16 1   
    16     9    10 ar  
    17     9    17 1   
    18    10    18 1   
    19    11    19 1   
@<TRIPOS>SUBSTRUCTURE
     1 9EQ         1 TEMP              0 ****  ****    0 ROOT
