@<TRIPOS>MOLECULE
9EQ
   19    19     1     0     0
SMALL
abcg2


@<TRIPOS>ATOM
      1 C10         11.1300   -19.5060    35.8560 ca         1 9EQ       0.245100
      2 C01         10.9750   -18.1590    38.6470 c3         1 9EQ      -0.202100
      3 C02         10.5820   -17.5000    37.3530 c          1 9EQ       0.606700
      4 O03         10.2040   -16.3290    37.4070 o          1 9EQ      -0.576100
      5 C04         10.5810   -18.2150    36.0700 ca         1 9EQ      -0.385600
      6 C05          9.9080   -17.5990    34.9720 ca         1 9EQ       0.245100
      7 O06          9.4180   -16.3690    35.0510 oh         1 9EQ      -0.545100
      8 C07          9.7180   -18.2830    33.7740 ca         1 9EQ      -0.218500
      9 C08         10.2190   -19.5620    33.6360 ca         1 9EQ       0.003000
     10 C09         10.9290   -20.1730    34.6560 ca         1 9EQ      -0.218500
     11 O11         11.8620   -20.1800    36.7570 oh         1 9EQ      -0.545100
     12 H1          10.5960   -17.5620    39.4730 hc         1 9EQ       0.069033
     13 H2          10.5870   -19.1720    38.7450 hc         1 9EQ       0.069033
     14 H3          12.0640   -18.1850    38.7580 hc         1 9EQ       0.069033
     15 H4           9.6390   -16.0230    35.9530 ho         1 9EQ       0.497000
     16 H5           9.1870   -17.7970    32.9670 ha         1 9EQ       0.135500
     17 H6          10.0730   -20.0920    32.7030 ha         1 9EQ       0.119000
     18 H7          11.3540   -21.1590    34.5230 ha         1 9EQ       0.135500
     19 H8          12.2510   -19.6180    37.4320 ho         1 9EQ       0.497000
@<TRIPOS>BOND
     1     1     5 ar  
     2     1    10 ar  
     3     1    11 1   
     4     2     3 1   
     5     2    12 1   
     6     2    13 1   
     7     2    14 1   
     8     3     4 2   
     9     3     5 1   
    10     5     6 ar  
    11     6     7 1   
    12     6     8 ar  
    13     7    15 1   
    14     8     9 ar  
    15     8    16 1   
    16     9    10 ar  
    17     9    17 1   
    18    10    18 1   
    19    11    19 1   
@<TRIPOS>SUBSTRUCTURE
     1 9EQ         1 TEMP              0 ****  ****    0 ROOT
