@<TRIPOS>MOLECULE
9ER
   73    75     1     0     0
SMALL
abcg2


@<TRIPOS>ATOM
      1 CAK         -2.7500     3.5000     2.6680 c3         1 9ER      -0.083850
      2 CAJ         -1.9430     2.3010     2.1770 c3         1 9ER      -0.018900
      3 CAL         -1.4230     1.4730     3.3550 c3         1 9ER      -0.083850
      4 CAH         -2.7090     1.4140     1.2180 ca         1 9ER      -0.045300
      5 CAI         -4.0350     1.0810     1.4840 ca         1 9ER      -0.111000
      6 CAD         -4.7560     0.2230     0.6650 ca         1 9ER      -0.067300
      7 CAB         -6.1920    -0.1270     0.9830 c3         1 9ER      -0.016400
      8 CAA         -7.1420     0.3370    -0.1200 c3         1 9ER      -0.084100
      9 CAC         -6.3510    -1.6240     1.2520 c3         1 9ER      -0.084100
     10 CAE         -4.1180    -0.3180    -0.4450 ca         1 9ER      -0.111000
     11 CAF         -2.7930    -0.0230    -0.7440 ca         1 9ER      -0.045300
     12 CBE         -2.1490    -0.6360    -1.9710 c3         1 9ER      -0.018900
     13 CBF         -2.3410    -2.1510    -2.0400 c3         1 9ER      -0.083850
     14 CBG         -2.6640     0.0380    -3.2430 c3         1 9ER      -0.083850
     15 CAG         -2.0920     0.8610     0.0890 ca         1 9ER      -0.118500
     16 CAM         -0.6750     1.1700    -0.2140 cc         1 9ER       0.387500
     17 NAQ          0.3020     0.3440     0.2770 nc         1 9ER      -0.744000
     18 CAN         -0.2490     2.1930    -0.9910 cd         1 9ER      -0.280000
     19 SAO          1.4770     2.1410    -1.1350 ss         1 9ER      -0.106400
     20 CAP          1.4820     0.7140    -0.1250 cd         1 9ER       0.723300
     21 NAR          2.6270     0.0740     0.1870 nh         1 9ER      -0.785300
     22 CAS          3.8990     0.4630    -0.3810 c3         1 9ER       0.223800
     23 CAT          4.6190     1.4960     0.4840 c3         1 9ER       0.142800
     24 NAU          5.8640     1.9350    -0.1100 n3         1 9ER      -0.716600
     25 CAV          6.3410     3.1570     0.5020 c3         1 9ER       0.150600
     26 CAW          6.8880     0.9110    -0.0800 c3         1 9ER       0.150600
     27 CAX          2.5770    -1.1170     1.0200 c3         1 9ER       0.285100
     28 CAY          2.4420    -2.3770     0.2060 ca         1 9ER      -0.167300
     29 CBD          1.2360    -2.7490    -0.3830 ca         1 9ER      -0.048000
     30 CBC          1.1880    -3.9000    -1.1490 ca         1 9ER      -0.169000
     31 CBB          2.3490    -4.6470    -1.3010 ca         1 9ER       0.338900
     32 NBA          3.5040    -4.3120    -0.7420 nb         1 9ER      -0.670000
     33 CAZ          3.5380    -3.2050    -0.0090 ca         1 9ER       0.337900
     34 H1          -2.1140     4.1610     3.2580 hc         1 9ER       0.034033
     35 H2          -3.1550     4.0790     1.8370 hc         1 9ER       0.034033
     36 H3          -3.5840     3.2030     3.3050 hc         1 9ER       0.034033
     37 H4          -1.0730     2.6950     1.6470 hc         1 9ER       0.057700
     38 H5          -2.2480     1.0440     3.9280 hc         1 9ER       0.034033
     39 H6          -0.7920     0.6530     3.0090 hc         1 9ER       0.034033
     40 H7          -0.8320     2.0920     4.0310 hc         1 9ER       0.034033
     41 H8          -4.5250     1.4940     2.3590 ha         1 9ER       0.111500
     42 H9          -6.4630     0.4050     1.9010 hc         1 9ER       0.047700
     43 H10         -6.9260    -0.1590    -1.0690 hc         1 9ER       0.034533
     44 H11         -8.1770     0.1080     0.1410 hc         1 9ER       0.034533
     45 H12         -7.0660     1.4130    -0.2830 hc         1 9ER       0.034533
     46 H13         -5.6990    -1.9540     2.0610 hc         1 9ER       0.034533
     47 H14         -7.3790    -1.8570     1.5320 hc         1 9ER       0.034533
     48 H15         -6.1080    -2.2150     0.3670 hc         1 9ER       0.034533
     49 H16         -4.6680    -0.9900    -1.0950 ha         1 9ER       0.111500
     50 H17         -1.0730    -0.4550    -1.9200 hc         1 9ER       0.057700
     51 H18         -3.3840    -2.4280    -2.2050 hc         1 9ER       0.034033
     52 H19         -1.7640    -2.5620    -2.8690 hc         1 9ER       0.034033
     53 H20         -2.0110    -2.6420    -1.1230 hc         1 9ER       0.034033
     54 H21         -3.7400    -0.1050    -3.3570 hc         1 9ER       0.034033
     55 H22         -2.4680     1.1110    -3.2280 hc         1 9ER       0.034033
     56 H23         -2.1760    -0.3810    -4.1250 hc         1 9ER       0.034033
     57 H24         -0.8300     2.9540    -1.4850 h4         1 9ER       0.163000
     58 H25          4.4970    -0.4410    -0.5000 h1         1 9ER       0.063200
     59 H26          3.7620     0.8570    -1.3920 h1         1 9ER       0.063200
     60 H27          3.9650     2.3660     0.5880 h1         1 9ER       0.040200
     61 H28          4.7580     1.0880     1.5000 h1         1 9ER       0.040200
     62 H30          6.5910     3.0440     1.5680 h1         1 9ER       0.032367
     63 H31          7.2390     3.5020    -0.0130 h1         1 9ER       0.032367
     64 H32          5.5870     3.9400     0.4170 h1         1 9ER       0.032367
     65 H33          6.5770     0.0240    -0.6310 h1         1 9ER       0.032367
     66 H34          7.7940     1.2820    -0.5610 h1         1 9ER       0.032367
     67 H35          7.1550     0.5960     0.9410 h1         1 9ER       0.032367
     68 H36          3.4930    -1.1500     1.6130 h1         1 9ER       0.068200
     69 H37          1.7480    -1.0210     1.7190 h1         1 9ER       0.068200
     70 H38          0.3540    -2.1390    -0.2380 ha         1 9ER       0.146000
     71 H39          0.2690    -4.2220    -1.6210 ha         1 9ER       0.124000
     72 H40          2.3410    -5.5540    -1.8960 h4         1 9ER       0.018100
     73 H41          4.4950    -2.9590     0.4440 h4         1 9ER       0.011100
@<TRIPOS>BOND
     1     1     2 1   
     2     1    34 1   
     3     1    35 1   
     4     1    36 1   
     5     2     3 1   
     6     2     4 1   
     7     2    37 1   
     8     3    38 1   
     9     3    39 1   
    10     3    40 1   
    11     4     5 ar  
    12     4    15 ar  
    13     5     6 ar  
    14     5    41 1   
    15     6     7 1   
    16     6    10 ar  
    17     7     8 1   
    18     7     9 1   
    19     7    42 1   
    20     8    43 1   
    21     8    44 1   
    22     8    45 1   
    23     9    46 1   
    24     9    47 1   
    25     9    48 1   
    26    10    11 ar  
    27    10    49 1   
    28    11    12 1   
    29    11    15 ar  
    30    12    13 1   
    31    12    14 1   
    32    12    50 1   
    33    13    51 1   
    34    13    52 1   
    35    13    53 1   
    36    14    54 1   
    37    14    55 1   
    38    14    56 1   
    39    15    16 1   
    40    16    17 1   
    41    16    18 2   
    42    17    20 2   
    43    18    19 1   
    44    18    57 1   
    45    19    20 1   
    46    20    21 1   
    47    21    22 1   
    48    21    27 1   
    49    22    23 1   
    50    22    58 1   
    51    22    59 1   
    52    23    24 1   
    53    23    60 1   
    54    23    61 1   
    55    24    25 1   
    56    24    26 1   
    57    25    62 1   
    58    25    63 1   
    59    25    64 1   
    60    26    65 1   
    61    26    66 1   
    62    26    67 1   
    63    27    28 1   
    64    27    68 1   
    65    27    69 1   
    66    28    29 ar  
    67    28    33 ar  
    68    29    30 ar  
    69    29    70 1   
    70    30    31 ar  
    71    30    71 1   
    72    31    32 ar  
    73    31    72 1   
    74    32    33 ar  
    75    33    73 1   
@<TRIPOS>SUBSTRUCTURE
     1 9ER         1 TEMP              0 ****  ****    0 ROOT
