@<TRIPOS>MOLECULE
9ER
   73    75     1     0     0
SMALL
No Charge or Current Charge


@<TRIPOS>ATOM
      1 CAK         -2.3110     3.7240     2.0320 c3         1 9ER      -0.083850
      2 CAJ         -1.8470     2.2650     2.2300 c3         1 9ER      -0.018900
      3 CAL         -1.9290     1.8340     3.7120 c3         1 9ER      -0.083850
      4 CAH         -2.6250     1.3060     1.3070 ca         1 9ER      -0.045300
      5 CAI         -3.9970     1.0940     1.5530 ca         1 9ER      -0.111000
      6 CAD         -4.7610     0.2410     0.7420 ca         1 9ER      -0.067300
      7 CAB         -6.2510     0.0360     1.0300 c3         1 9ER      -0.016400
      8 CAA         -7.1280     0.5550    -0.1300 c3         1 9ER      -0.084100
      9 CAC         -6.5650    -1.4390     1.3690 c3         1 9ER      -0.084100
     10 CAE         -4.1410    -0.4090    -0.3370 ca         1 9ER      -0.111000
     11 CAF         -2.7720    -0.2240    -0.6160 ca         1 9ER      -0.045300
     12 CBE         -2.1610    -0.9510    -1.8310 c3         1 9ER      -0.018900
     13 CBF         -2.3730    -2.4810    -1.7600 c3         1 9ER      -0.083850
     14 CBG         -2.6980    -0.3620    -3.1530 c3         1 9ER      -0.083850
     15 CAG         -2.0070     0.6410     0.2130 ca         1 9ER      -0.118500
     16 CAM         -0.6030     0.8990    -0.0990 cc         1 9ER       0.387500
     17 NAQ          0.4120     0.0820     0.3120 nc         1 9ER      -0.744000
     18 CAN         -0.2880     1.9980    -0.8570 cd         1 9ER      -0.280000
     19 SAO          1.4480     2.0650    -1.1010 ss         1 9ER      -0.106400
     20 CAP          1.5400     0.5720    -0.1560 cd         1 9ER       0.723300
     21 NAR          2.7480    -0.0880     0.0780 nh         1 9ER      -0.785300
     22 CAS          4.0460     0.4900    -0.3500 c3         1 9ER       0.223800
     23 CAT          4.6080     1.5670     0.6210 c3         1 9ER       0.142800
     24 NAU          5.8590     2.2490     0.1810 n3         1 9ER      -0.716600
     25 CAV          6.1920     3.4080     1.0390 c3         1 9ER       0.150600
     26 CAW          7.0140     1.3320     0.0180 c3         1 9ER       0.150600
     27 CAX          2.7960    -1.4110     0.7390 c3         1 9ER       0.285100
     28 CAY          2.5510    -2.5580    -0.2270 ca         1 9ER      -0.167300
     29 CBD          1.2610    -3.0880    -0.4160 ca         1 9ER      -0.048000
     30 CBC          1.1030    -4.1460    -1.3260 ca         1 9ER      -0.169000
     31 CBB          2.2290    -4.6360    -2.0090 ca         1 9ER       0.338900
     32 NBA          3.4720    -4.1330    -1.8310 nb         1 9ER      -0.670000
     33 CAZ          3.6200    -3.1120    -0.9540 ca         1 9ER       0.337900
     34 H1          -1.7090     4.4080     2.6420 hc         1 9ER       0.034033
     35 H2          -2.2040     4.0210     0.9820 hc         1 9ER       0.034033
     36 H3          -3.3630     3.8470     2.3180 hc         1 9ER       0.034033
     37 H4          -0.7790     2.2510     1.9870 hc         1 9ER       0.057700
     38 H5          -2.9510     1.9180     4.1010 hc         1 9ER       0.034033
     39 H6          -1.6010     0.7940     3.8280 hc         1 9ER       0.034033
     40 H7          -1.2800     2.4640     4.3320 hc         1 9ER       0.034033
     41 H8          -4.4790     1.6070     2.3810 ha         1 9ER       0.111500
     42 H9          -6.5240     0.6240     1.9160 hc         1 9ER       0.047700
     43 H10         -6.9530    -0.0200    -1.0480 hc         1 9ER       0.034533
     44 H11         -8.1920     0.4770     0.1240 hc         1 9ER       0.034533
     45 H12         -6.9050     1.6090    -0.3380 hc         1 9ER       0.034533
     46 H13         -5.9460    -1.7790     2.2080 hc         1 9ER       0.034533
     47 H14         -7.6170    -1.5530     1.6550 hc         1 9ER       0.034533
     48 H15         -6.3710    -2.0930     0.5110 hc         1 9ER       0.034533
     49 H16         -4.7350    -1.0580    -0.9740 ha         1 9ER       0.111500
     50 H17         -1.0750    -0.8120    -1.8590 hc         1 9ER       0.057700
     51 H18         -3.4310    -2.7480    -1.8610 hc         1 9ER       0.034033
     52 H19         -1.8210    -2.9820    -2.5650 hc         1 9ER       0.034033
     53 H20         -2.0080    -2.8750    -0.8040 hc         1 9ER       0.034033
     54 H21         -3.7800    -0.5120    -3.2430 hc         1 9ER       0.034033
     55 H22         -2.4950     0.7150    -3.2030 hc         1 9ER       0.034033
     56 H23         -2.2140    -0.8390    -4.0140 hc         1 9ER       0.034033
     57 H24         -0.9550     2.7430    -1.2700 h4         1 9ER       0.163000
     58 H25          4.7900    -0.3110    -0.4460 h1         1 9ER       0.063200
     59 H26          3.9520     0.9360    -1.3480 h1         1 9ER       0.063200
     60 H27          3.8220     2.3210     0.7610 h1         1 9ER       0.040200
     61 H28          4.7680     1.0950     1.6000 h1         1 9ER       0.040200
     62 H30          6.4160     3.0850     2.0640 h1         1 9ER       0.032367
     63 H31          7.0680     3.9430     0.6470 h1         1 9ER       0.032367
     64 H32          5.3550     4.1170     1.0760 h1         1 9ER       0.032367
     65 H33          6.8080     0.5620    -0.7360 h1         1 9ER       0.032367
     66 H34          7.9030     1.8860    -0.3130 h1         1 9ER       0.032367
     67 H35          7.2550     0.8330     0.9670 h1         1 9ER       0.032367
     68 H36          3.7750    -1.5570     1.2170 h1         1 9ER       0.068200
     69 H37          2.0600    -1.4620     1.5530 h1         1 9ER       0.068200
     70 H38          0.4040    -2.6890     0.1250 ha         1 9ER       0.146000
     71 H39          0.1260    -4.5850    -1.5030 ha         1 9ER       0.124000
     72 H40          2.1330    -5.4560    -2.7190 h4         1 9ER       0.018100
     73 H41          4.6330    -2.7280    -0.8330 h4         1 9ER       0.011100
@<TRIPOS>BOND
     1     1     2 1   
     2     1    34 1   
     3     1    35 1   
     4     1    36 1   
     5     2     3 1   
     6     2     4 1   
     7     2    37 1   
     8     3    38 1   
     9     3    39 1   
    10     3    40 1   
    11     4     5 ar  
    12     4    15 ar  
    13     5     6 ar  
    14     5    41 1   
    15     6     7 1   
    16     6    10 ar  
    17     7     8 1   
    18     7     9 1   
    19     7    42 1   
    20     8    43 1   
    21     8    44 1   
    22     8    45 1   
    23     9    46 1   
    24     9    47 1   
    25     9    48 1   
    26    10    11 ar  
    27    10    49 1   
    28    11    12 1   
    29    11    15 ar  
    30    12    13 1   
    31    12    14 1   
    32    12    50 1   
    33    13    51 1   
    34    13    52 1   
    35    13    53 1   
    36    14    54 1   
    37    14    55 1   
    38    14    56 1   
    39    15    16 1   
    40    16    17 1   
    41    16    18 2   
    42    17    20 2   
    43    18    19 1   
    44    18    57 1   
    45    19    20 1   
    46    20    21 1   
    47    21    22 1   
    48    21    27 1   
    49    22    23 1   
    50    22    58 1   
    51    22    59 1   
    52    23    24 1   
    53    23    60 1   
    54    23    61 1   
    55    24    25 1   
    56    24    26 1   
    57    25    62 1   
    58    25    63 1   
    59    25    64 1   
    60    26    65 1   
    61    26    66 1   
    62    26    67 1   
    63    27    28 1   
    64    27    68 1   
    65    27    69 1   
    66    28    29 ar  
    67    28    33 ar  
    68    29    30 ar  
    69    29    70 1   
    70    30    31 ar  
    71    30    71 1   
    72    31    32 ar  
    73    31    72 1   
    74    32    33 ar  
    75    33    73 1   
@<TRIPOS>SUBSTRUCTURE
     1 9ER         1 TEMP              0 ****  ****    0 ROOT
