@<TRIPOS>MOLECULE
9ES
   79    82     1     0     0
SMALL
No Charge or Current Charge


@<TRIPOS>ATOM
      1 C2          -9.6320    -2.0350     1.4660 c6         1 9ES       0.158300
      2 C3          -8.2410    -1.5010     1.9420 c6         1 9ES       0.198800
      3 C4          -8.3020     0.1790     0.1030 c6         1 9ES       0.198800
      4 C5          -9.6950    -0.3830    -0.3340 c6         1 9ES       0.158300
      5 C6          -6.0750    -0.6800     0.9080 ca         1 9ES       0.337000
      6 C9          -3.2500    -0.3990     0.9940 ca         1 9ES       0.172000
      7 C10         -0.8610    -0.6860     1.9050 ca         1 9ES       0.390900
      8 C11          0.4350    -0.1850     1.7800 ca         1 9ES      -0.357000
      9 C12          1.4240    -0.6710     2.6570 ca         1 9ES       0.298900
     10 C13         -0.1690    -2.0550     3.5900 ca         1 9ES       0.187900
     11 C21          7.2440     2.2910    -0.6580 ca         1 9ES       0.204100
     12 C22          8.7690     3.9840    -1.6270 c3         1 9ES       0.147900
     13 C25         -3.5130    -0.0180    -2.7470 c          1 9ES       0.608100
     14 C26         -2.3920    -0.1980    -3.7810 c3         1 9ES      -0.160400
     15 C27         -1.7910     1.1570    -4.2190 c3         1 9ES      -0.077100
     16 C24         -3.9260    -0.4350    -0.2530 ca         1 9ES       0.033000
     17 C28         -5.3300    -0.5860    -0.2790 ca         1 9ES      -0.189000
     18 N1          -7.4780    -0.8300     0.8420 nh         1 9ES      -0.789400
     19 N          -10.4670    -0.9860     0.8010 n3         1 9ES      -0.720600
     20 C1         -11.8020    -1.5030     0.4120 c3         1 9ES       0.169800
     21 C          -12.7840    -0.4270    -0.0930 c3         1 9ES      -0.091100
     22 C8          -4.0040    -0.4900     2.1820 ca         1 9ES      -0.044000
     23 C7          -5.4010    -0.6300     2.1390 ca         1 9ES      -0.203000
     24 N2          -1.8510    -0.2270     1.0470 nu         1 9ES      -0.961900
     25 N4          -1.1740    -1.6310     2.8030 nb         1 9ES      -0.251000
     26 N3           1.1100    -1.6300     3.5570 nb         1 9ES      -0.244000
     27 N5           2.8170    -0.2840     2.5700 n          1 9ES      -0.431300
     28 C15          3.4540     0.0410     1.3390 c          1 9ES       0.687100
     29 O            2.8750     0.0140     0.2630 o          1 9ES      -0.526100
     30 N6           4.7910     0.3930     1.4170 ns         1 9ES      -0.175000
     31 C16          5.7010     0.6950     0.3740 ca         1 9ES       0.053000
     32 C23          6.3360     1.9530     0.3670 ca         1 9ES       0.030500
     33 Cl1          5.9770     3.1250     1.6460 cl         1 9ES      -0.165000
     34 C20          7.5280     1.3580    -1.6780 ca         1 9ES      -0.289000
     35 C18          6.9160     0.0860    -1.6630 ca         1 9ES       0.204100
     36 C17          6.0070    -0.2470    -0.6360 ca         1 9ES       0.030500
     37 Cl           5.3120    -1.8770    -0.5920 cl         1 9ES      -0.165000
     38 O1           7.1880    -0.8640    -2.6320 os         1 9ES      -0.318600
     39 C19          8.1020    -0.6280    -3.7180 c3         1 9ES       0.147900
     40 H1          -9.4610    -2.8730     0.7730 h1         1 9ES       0.040450
     41 H2         -10.1610    -2.4460     2.3380 h1         1 9ES       0.040450
     42 H3          -8.4010    -0.7940     2.7690 h1         1 9ES       0.046700
     43 H4          -7.6660    -2.3500     2.3410 h1         1 9ES       0.046700
     44 H5          -7.7770     0.5310    -0.7960 h1         1 9ES       0.046700
     45 H6          -8.4660     1.0570     0.7440 h1         1 9ES       0.046700
     46 H7         -10.2580     0.4410    -0.7940 h1         1 9ES       0.040450
     47 H8          -9.5330    -1.1370    -1.1200 h1         1 9ES       0.040450
     48 H9           0.6490     0.5870     1.0500 ha         1 9ES       0.126000
     49 H10         -0.4100    -2.8240     4.3220 h5         1 9ES       0.051100
     50 H11          4.2570    -1.4550     3.6240 h1         1 9ES       0.046700
     51 H12          4.3790     0.3090     3.9140 h1         1 9ES       0.046700
     52 H13          3.0890    -0.6110     4.6790 h1         1 9ES       0.046700
     53 H14          9.6520     3.3320    -1.6490 h1         1 9ES       0.045867
     54 H15          8.3070     3.9870    -2.6230 h1         1 9ES       0.045867
     55 H16          9.1060     5.0040    -1.4070 h1         1 9ES       0.045867
     56 H17         -1.5850    -0.8110    -3.3620 hc         1 9ES       0.058700
     57 H18         -2.8070    -0.6910    -4.6680 hc         1 9ES       0.058700
     58 H19         -1.3620     1.6880    -3.3610 hc         1 9ES       0.043367
     59 H20         -0.9960     1.0030    -4.9580 hc         1 9ES       0.043367
     60 H21         -2.5590     1.7960    -4.6730 hc         1 9ES       0.043367
     61 H22         -2.2080    -0.6900    -1.3510 hn         1 9ES       0.160000
     62 H23         -5.8580    -0.6650    -1.2210 ha         1 9ES       0.153000
     63 H25        -11.6960    -2.2740    -0.3640 h1         1 9ES       0.029200
     64 H26        -12.2660    -1.9870     1.2820 h1         1 9ES       0.029200
     65 H27        -12.8760     0.3860     0.6370 hc         1 9ES       0.037367
     66 H28        -12.4580    -0.0050    -1.0500 hc         1 9ES       0.037367
     67 H29        -13.7770    -0.8660    -0.2420 hc         1 9ES       0.037367
     68 H30         -3.5110    -0.4290     3.1480 ha         1 9ES       0.114000
     69 H31         -5.9530    -0.6840     3.0720 ha         1 9ES       0.117000
     70 H32         -1.4670     0.3360     0.2890 hn         1 9ES       0.492000
     71 H33          5.1720     0.4640     2.3500 hn         1 9ES       0.171000
     72 H34          8.2250     1.6140    -2.4660 ha         1 9ES       0.128000
     73 H35          8.1630    -1.5140    -4.3610 h1         1 9ES       0.045867
     74 H36          7.7660     0.2160    -4.3340 h1         1 9ES       0.045867
     75 H37          9.1090    -0.4120    -3.3400 h1         1 9ES       0.045867
     76 N7          -3.1650    -0.3790    -1.4550 ns         1 9ES      -0.146000
     77 O2           7.8320     3.5420    -0.6290 os         1 9ES      -0.318600
     78 C14          3.6860    -0.5280     3.7620 c3         1 9ES       0.094300
     79 O3          -4.6190     0.4020    -3.0680 o          1 9ES      -0.582100
@<TRIPOS>BOND
     1     1     2 1   
     2     1    19 1   
     3     1    40 1   
     4     1    41 1   
     5     2    18 1   
     6     2    42 1   
     7     2    43 1   
     8     3     4 1   
     9     3    18 1   
    10     3    44 1   
    11     3    45 1   
    12     4    19 1   
    13     4    46 1   
    14     4    47 1   
    15     5    17 ar  
    16     5    18 1   
    17     5    23 ar  
    18     6    16 ar  
    19     6    22 ar  
    20     6    24 1   
    21     7     8 ar  
    22     7    24 1   
    23     7    25 ar  
    24     8     9 ar  
    25     8    48 1   
    26     9    26 ar  
    27     9    27 1   
    28    10    25 ar  
    29    10    26 ar  
    30    10    49 1   
    31    11    32 ar  
    32    11    34 ar  
    33    11    77 1   
    34    12    53 1   
    35    12    54 1   
    36    12    55 1   
    37    12    77 1   
    38    13    14 1   
    39    13    76 1   
    40    13    79 2   
    41    14    15 1   
    42    14    56 1   
    43    14    57 1   
    44    15    58 1   
    45    15    59 1   
    46    15    60 1   
    47    16    17 ar  
    48    16    76 1   
    49    17    62 1   
    50    19    20 1   
    51    20    21 1   
    52    20    63 1   
    53    20    64 1   
    54    21    65 1   
    55    21    66 1   
    56    21    67 1   
    57    22    23 ar  
    58    22    68 1   
    59    23    69 1   
    60    24    70 1   
    61    27    28 1   
    62    27    78 1   
    63    28    29 2   
    64    28    30 1   
    65    30    31 1   
    66    30    71 1   
    67    31    32 ar  
    68    31    36 ar  
    69    32    33 1   
    70    34    35 ar  
    71    34    72 1   
    72    35    36 ar  
    73    35    38 1   
    74    36    37 1   
    75    38    39 1   
    76    39    73 1   
    77    39    74 1   
    78    39    75 1   
    79    50    78 1   
    80    51    78 1   
    81    52    78 1   
    82    61    76 1   
@<TRIPOS>SUBSTRUCTURE
     1 9ES         1 TEMP              0 ****  ****    0 ROOT
