@<TRIPOS>MOLECULE
9ES
   79    82     1     0     0
SMALL
bcc


@<TRIPOS>ATOM
      1 C2          -8.6370    -3.2850     1.2400 c6         1 9ES       0.158300
      2 C3          -7.4360    -2.4820     1.7060 c6         1 9ES       0.198800
      3 C4          -8.4190    -0.5290     0.7020 c6         1 9ES       0.198800
      4 C5          -9.6020    -1.3670     0.2590 c6         1 9ES       0.158300
      5 C6          -5.9910    -0.6930     0.9030 ca         1 9ES       0.198600
      6 C9          -3.4970     0.6050     0.9360 ca         1 9ES       0.033600
      7 C10         -1.0940     0.6920     0.5300 ca         1 9ES       0.719200
      8 C11          0.1390     1.2990     0.7970 ca         1 9ES      -0.505600
      9 C12          1.2690     0.6480     0.3240 ca         1 9ES       0.627200
     10 C13         -0.0340    -0.9700    -0.5510 ca         1 9ES       0.713900
     11 C21          7.9730     0.5540    -1.0310 ca         1 9ES       0.204100
     12 C22          9.8970     1.1300    -2.2900 c3         1 9ES       0.124700
     13 C25         -4.8330     2.5620    -1.9010 c          1 9ES       0.675100
     14 C26         -4.0460     3.5940    -2.6820 c3         1 9ES      -0.160400
     15 C27         -4.9180     4.5040    -3.5290 c3         1 9ES      -0.077100
     16 C24         -4.4710     0.9770    -0.0070 ca         1 9ES       0.125600
     17 C28         -5.7000     0.3290    -0.0140 ca         1 9ES      -0.207000
     18 N1          -7.2190    -1.3420     0.8390 nh         1 9ES      -0.651000
     19 N           -9.8270    -2.4640     1.1780 n3         1 9ES      -0.720600
     20 C1         -11.0000    -3.2530     0.8460 c3         1 9ES       0.169800
     21 C          -12.3060    -2.4970     1.0240 c3         1 9ES      -0.091100
     22 C8          -3.7850    -0.4050     1.8340 ca         1 9ES      -0.062000
     23 C7          -5.0100    -1.0510     1.8350 ca         1 9ES      -0.221000
     24 N2          -2.2470     1.2710     0.9570 nu         1 9ES      -0.768300
     25 N4          -1.1830    -0.4470    -0.1580 nb         1 9ES      -0.777000
     26 N3           1.1800    -0.5070    -0.3480 nb         1 9ES      -0.770000
     27 N5           2.5330     1.1300     0.5840 n          1 9ES      -0.498300
     28 C15          3.6480     0.6130    -0.0960 c          1 9ES       0.821100
     29 O            3.6750     0.3880    -1.2820 o          1 9ES      -0.526100
     30 N6           4.7190     0.4250     0.7250 ns         1 9ES      -0.501100
     31 C16          5.9720     0.0500     0.2310 ca         1 9ES       0.145600
     32 C23          6.7180     0.9270    -0.5480 ca         1 9ES      -0.061100
     33 CL1          6.1160     2.5010    -0.8990 cl         1 9ES      -0.073400
     34 C20          8.4880    -0.6970    -0.7040 ca         1 9ES      -0.307000
     35 C18          7.7600    -1.5770     0.0910 ca         1 9ES       0.204100
     36 C17          6.4950    -1.2000     0.5440 ca         1 9ES      -0.061100
     37 CL           5.5780    -2.3040     1.4970 cl         1 9ES      -0.073400
     38 O1           8.1860    -2.7900     0.4480 os         1 9ES      -0.295400
     39 C19          9.4620    -3.2240     0.0100 c3         1 9ES       0.124700
     40 H1          -8.4020    -3.7420     0.2620 h1         1 9ES       0.040450
     41 H2          -8.7970    -4.1010     1.9480 h1         1 9ES       0.040450
     42 H3          -7.5830    -2.1770     2.7530 h1         1 9ES       0.046700
     43 H4          -6.5640    -3.1360     1.6750 h1         1 9ES       0.046700
     44 H5          -8.2650     0.2570    -0.0340 h1         1 9ES       0.046700
     45 H6          -8.6630    -0.0400     1.6570 h1         1 9ES       0.046700
     46 H7         -10.4770    -0.7170     0.2320 h1         1 9ES       0.040450
     47 H8          -9.4310    -1.7280    -0.7700 h1         1 9ES       0.040450
     48 H9           0.1800     2.2210     1.3570 ha         1 9ES       0.144000
     49 H10         -0.1020    -1.9030    -1.1030 h5         1 9ES       0.051100
     50 H11          2.3360     2.0280     2.4880 h1         1 9ES       0.046700
     51 H12          3.7440     2.5350     1.5480 h1         1 9ES       0.046700
     52 H13          2.1560     3.1320     1.1110 h1         1 9ES       0.046700
     53 H14         10.6180     0.9520    -1.4890 h1         1 9ES       0.045867
     54 H15          9.8640     0.2550    -2.9430 h1         1 9ES       0.045867
     55 H16         10.2180     1.9900    -2.8700 h1         1 9ES       0.045867
     56 H17         -3.4330     4.1830    -1.9960 hc         1 9ES       0.058700
     57 H18         -3.3380     3.0510    -3.3190 hc         1 9ES       0.058700
     58 H19         -5.5920     5.0990    -2.9130 hc         1 9ES       0.043367
     59 H20         -4.2930     5.1920    -4.0970 hc         1 9ES       0.043367
     60 H21         -5.5200     3.9390    -4.2390 hc         1 9ES       0.043367
     61 H22         -3.1750     2.3300    -0.7670 hn         1 9ES       0.326500
     62 H23         -6.4270     0.5980    -0.7610 ha         1 9ES       0.171000
     63 H25        -10.9400    -3.6540    -0.1800 h1         1 9ES       0.029200
     64 H26        -11.0070    -4.1190     1.5120 h1         1 9ES       0.029200
     65 H27        -12.3690    -2.0640     2.0230 hc         1 9ES       0.037367
     66 H28        -12.4330    -1.6930     0.2980 hc         1 9ES       0.037367
     67 H29        -13.1480    -3.1780     0.8980 hc         1 9ES       0.037367
     68 H30         -3.0360    -0.6850     2.5630 ha         1 9ES       0.132000
     69 H31         -5.1880    -1.8160     2.5760 ha         1 9ES       0.135000
     70 H32         -2.1550     2.0740     1.5610 hn         1 9ES       0.436800
     71 H33          4.5650     0.3460     1.7200 hn         1 9ES       0.337500
     72 H34          9.4630    -0.9850    -1.0690 ha         1 9ES       0.146000
     73 H35          9.5990    -4.2230     0.4140 h1         1 9ES       0.045867
     74 H36          9.5210    -3.2710    -1.0800 h1         1 9ES       0.045867
     75 H37         10.2590    -2.5780     0.3850 h1         1 9ES       0.045867
     76 N7          -4.1160     1.9860    -0.8990 ns         1 9ES      -0.472100
     77 O2           8.6150     1.4530    -1.7800 os         1 9ES      -0.295400
     78 C14          2.6960     2.2620     1.4860 c3         1 9ES       0.094300
     79 O3          -5.9850     2.2720    -2.1680 o          1 9ES      -0.582100
@<TRIPOS>BOND
     1     1     2 1   
     2     1    19 1   
     3     1    40 1   
     4     1    41 1   
     5     2    18 1   
     6     2    42 1   
     7     2    43 1   
     8     3     4 1   
     9     3    18 1   
    10     3    44 1   
    11     3    45 1   
    12     4    19 1   
    13     4    46 1   
    14     4    47 1   
    15     5    17 ar  
    16     5    18 1   
    17     5    23 ar  
    18     6    16 ar  
    19     6    22 ar  
    20     6    24 1   
    21     7     8 ar  
    22     7    24 1   
    23     7    25 ar  
    24     8     9 ar  
    25     8    48 1   
    26     9    26 ar  
    27     9    27 1   
    28    10    25 ar  
    29    10    26 ar  
    30    10    49 1   
    31    11    32 ar  
    32    11    34 ar  
    33    11    77 1   
    34    12    53 1   
    35    12    54 1   
    36    12    55 1   
    37    12    77 1   
    38    13    14 1   
    39    13    76 1   
    40    13    79 2   
    41    14    15 1   
    42    14    56 1   
    43    14    57 1   
    44    15    58 1   
    45    15    59 1   
    46    15    60 1   
    47    16    17 ar  
    48    16    76 1   
    49    17    62 1   
    50    19    20 1   
    51    20    21 1   
    52    20    63 1   
    53    20    64 1   
    54    21    65 1   
    55    21    66 1   
    56    21    67 1   
    57    22    23 ar  
    58    22    68 1   
    59    23    69 1   
    60    24    70 1   
    61    27    28 1   
    62    27    78 1   
    63    28    29 2   
    64    28    30 1   
    65    30    31 1   
    66    30    71 1   
    67    31    32 ar  
    68    31    36 ar  
    69    32    33 1   
    70    34    35 ar  
    71    34    72 1   
    72    35    36 ar  
    73    35    38 1   
    74    36    37 1   
    75    38    39 1   
    76    39    73 1   
    77    39    74 1   
    78    39    75 1   
    79    50    78 1   
    80    51    78 1   
    81    52    78 1   
    82    61    76 1   
@<TRIPOS>SUBSTRUCTURE
     1 9ES         1 TEMP              0 ****  ****    0 ROOT
