@<TRIPOS>MOLECULE
9ET
   44    47     1     0     0
SMALL
No Charge or Current Charge


@<TRIPOS>ATOM
      1 C10          0.0680    -1.0360    -0.2490 ca         1 9ET      -0.177800
      2 C13          0.4380     1.0150    -1.5730 ca         1 9ET      -0.129300
      3 C15         -0.9210     1.3800    -1.4110 ca         1 9ET      -0.021000
      4 C17         -3.1810     0.6250    -0.3380 cp         1 9ET      -0.112000
      5 C20         -5.7930     0.2450     0.5990 ca         1 9ET       0.169100
      6 C22         -4.8130    -0.7220     0.9000 ca         1 9ET      -0.247000
      7 C01          5.7710     2.3380     0.9040 c3         1 9ET      -0.156100
      8 C02          4.7860     1.3510     1.5130 c          1 9ET       0.593100
      9 C05          3.3560    -0.5250     1.0050 c3         1 9ET       0.138600
     10 C06          2.8990    -1.4120    -0.2020 c6         1 9ET       0.229200
     11 C07          4.1180    -2.0570    -0.9140 c3         1 9ET      -0.077100
     12 C08          1.9460    -2.4930     0.3010 c2         1 9ET      -0.274200
     13 C09          0.6150    -2.2950     0.3040 ce         1 9ET      -0.112200
     14 C11          0.9250    -0.1840    -0.9840 ca         1 9ET       0.176100
     15 C14          1.3750     1.9150    -2.3710 c3         1 9ET      -0.028800
     16 C16         -1.7650     0.5310    -0.6700 cp         1 9ET      -0.103000
     17 C18         -4.1550     1.5950    -0.6440 ca         1 9ET      -0.019000
     18 C19         -5.4690     1.3910    -0.1650 ca         1 9ET      -0.174000
     19 C23         -3.5240    -0.4940     0.4140 ca         1 9ET       0.031800
     20 C25         -1.2670    -0.6440    -0.1140 ca         1 9ET       0.040800
     21 N24         -2.3510    -1.2510     0.5400 na         1 9ET      -0.232600
     22 O03          4.4640     1.3510     2.6930 o          1 9ET      -0.488000
     23 O04          4.3120     0.4720     0.5780 os         1 9ET      -0.440100
     24 O12          2.2470    -0.5460    -1.1680 os         1 9ET      -0.334100
     25 O21         -7.0660     0.0760     1.0470 oh         1 9ET      -0.532100
     26 H1          -1.3120     2.2950    -1.8490 ha         1 9ET       0.119000
     27 H2          -5.0420    -1.6080     1.4850 ha         1 9ET       0.116000
     28 H3           6.1620     3.0510     1.6380 hc         1 9ET       0.069367
     29 H4           6.5720     1.7780     0.4100 hc         1 9ET       0.069367
     30 H5           5.2880     2.8430     0.0600 hc         1 9ET       0.069367
     31 H6           2.4700    -0.0500     1.4450 h1         1 9ET       0.060200
     32 H7           3.8000    -1.1780     1.7680 h1         1 9ET       0.060200
     33 H8           3.7920    -2.7190    -1.7250 hc         1 9ET       0.051367
     34 H9           4.7780    -1.2990    -1.3510 hc         1 9ET       0.051367
     35 H10          4.7150    -2.6560    -0.2160 hc         1 9ET       0.051367
     36 H11          2.3870    -3.4110     0.6920 ha         1 9ET       0.191000
     37 H13         -0.0870    -3.0390     0.6880 ha         1 9ET       0.178000
     38 H15          1.7690     1.3900    -3.2490 hc         1 9ET       0.042033
     39 H16          0.8680     2.8200    -2.7260 hc         1 9ET       0.042033
     40 H17          2.2280     2.2320    -1.7600 hc         1 9ET       0.042033
     41 H18         -3.9030     2.4750    -1.2310 ha         1 9ET       0.119000
     42 H19         -6.2400     2.1250    -0.3860 ha         1 9ET       0.130000
     43 H20         -2.2930    -2.1240     1.0470 hn         1 9ET       0.353000
     44 H21         -7.1020    -0.7650     1.5510 ho         1 9ET       0.464000
@<TRIPOS>BOND
     1     1    13 1   
     2     1    14 ar  
     3     1    20 ar  
     4     2     3 ar  
     5     2    14 ar  
     6     2    15 1   
     7     3    16 ar  
     8     3    26 1   
     9     4    16 1   
    10     4    17 ar  
    11     4    19 ar  
    12     5     6 ar  
    13     5    18 ar  
    14     5    25 1   
    15     6    19 ar  
    16     6    27 1   
    17     7     8 1   
    18     7    28 1   
    19     7    29 1   
    20     7    30 1   
    21     8    22 2   
    22     8    23 1   
    23     9    10 1   
    24     9    23 1   
    25     9    31 1   
    26     9    32 1   
    27    10    11 1   
    28    10    12 1   
    29    10    24 1   
    30    11    33 1   
    31    11    34 1   
    32    11    35 1   
    33    12    13 2   
    34    12    36 1   
    35    13    37 1   
    36    14    24 1   
    37    15    38 1   
    38    15    39 1   
    39    15    40 1   
    40    16    20 ar  
    41    17    18 ar  
    42    17    41 1   
    43    18    42 1   
    44    19    21 1   
    45    20    21 1   
    46    21    43 1   
    47    25    44 1   
@<TRIPOS>SUBSTRUCTURE
     1 9ET         1 TEMP              0 ****  ****    0 ROOT
