@<TRIPOS>MOLECULE
9ET
   44    47     1     0     0
SMALL
abcg2


@<TRIPOS>ATOM
      1 C10          0.1040    -1.0900    -0.2790 ca         1 9ET      -0.177800
      2 C13          0.5600     0.9520    -1.5770 ca         1 9ET      -0.129300
      3 C15         -0.7580     1.3530    -1.4050 ca         1 9ET      -0.021000
      4 C17         -3.0420     0.6940    -0.3290 cp         1 9ET      -0.112000
      5 C20         -5.6120     0.3010     0.6700 ca         1 9ET       0.169100
      6 C22         -4.6490    -0.6640     0.9310 ca         1 9ET      -0.247000
      7 C01          5.3000     2.4280     0.8330 c3         1 9ET      -0.156100
      8 C02          4.4600     1.3540     1.4570 c          1 9ET       0.593100
      9 C05          3.1990    -0.5860     0.9820 c3         1 9ET       0.138600
     10 C06          2.8740    -1.4600    -0.2290 c6         1 9ET       0.229200
     11 C07          4.1260    -2.0300    -0.8740 c3         1 9ET      -0.077100
     12 C08          1.9470    -2.5540     0.2320 c2         1 9ET      -0.274200
     13 C09          0.6300    -2.3500     0.2190 ce         1 9ET      -0.112200
     14 C11          0.9630    -0.2650    -1.0070 ca         1 9ET       0.176100
     15 C14          1.5410     1.7840    -2.3480 c3         1 9ET      -0.028800
     16 C16         -1.6500     0.5660    -0.6820 cp         1 9ET      -0.103000
     17 C18         -4.0290     1.6450    -0.5730 ca         1 9ET      -0.019000
     18 C19         -5.3040     1.4500    -0.0780 ca         1 9ET      -0.174000
     19 C23         -3.3720    -0.4500     0.4230 ca         1 9ET       0.031800
     20 C25         -1.2100    -0.6480    -0.1260 ca         1 9ET       0.040800
     21 N24         -2.2570    -1.2400     0.5330 na         1 9ET      -0.232600
     22 O03          4.1690     1.2880     2.6250 o          1 9ET      -0.488000
     23 O04          4.0470     0.4740     0.5510 os         1 9ET      -0.440100
     24 O12          2.2360    -0.6680    -1.2340 os         1 9ET      -0.334100
     25 O21         -6.8800     0.1850     1.1150 oh         1 9ET      -0.532100
     26 H1          -1.0840     2.2940    -1.8320 ha         1 9ET       0.119000
     27 H2          -4.8840    -1.5530     1.5050 ha         1 9ET       0.116000
     28 H3           5.8000     3.0140     1.5990 hc         1 9ET       0.069367
     29 H4           6.0420     2.0050     0.1570 hc         1 9ET       0.069367
     30 H5           4.6660     3.0940     0.2450 hc         1 9ET       0.069367
     31 H6           2.2810    -0.1820     1.4190 h1         1 9ET       0.060200
     32 H7           3.6930    -1.1980     1.7410 h1         1 9ET       0.060200
     33 H8           3.8620    -2.7080    -1.6850 hc         1 9ET       0.051367
     34 H9           4.7660    -1.2450    -1.2750 hc         1 9ET       0.051367
     35 H10          4.7000    -2.5940    -0.1390 hc         1 9ET       0.051367
     36 H11          2.3770    -3.4820     0.5860 ha         1 9ET       0.191000
     37 H13         -0.0500    -3.1210     0.5590 ha         1 9ET       0.178000
     38 H15          1.8600     1.2900    -3.2680 hc         1 9ET       0.042033
     39 H16          1.0990     2.7400    -2.6260 hc         1 9ET       0.042033
     40 H17          2.4430     1.9890    -1.7690 hc         1 9ET       0.042033
     41 H18         -3.8080     2.5350    -1.1500 ha         1 9ET       0.119000
     42 H19         -6.0820     2.1810    -0.2630 ha         1 9ET       0.130000
     43 H20         -2.2180    -2.1070     1.0420 hn         1 9ET       0.353000
     44 H21         -6.9880    -0.6330     1.6130 ho         1 9ET       0.464000
@<TRIPOS>BOND
     1     1    13 1   
     2     1    14 ar  
     3     1    20 ar  
     4     2     3 ar  
     5     2    14 ar  
     6     2    15 1   
     7     3    16 ar  
     8     3    26 1   
     9     4    16 1   
    10     4    17 ar  
    11     4    19 ar  
    12     5     6 ar  
    13     5    18 ar  
    14     5    25 1   
    15     6    19 ar  
    16     6    27 1   
    17     7     8 1   
    18     7    28 1   
    19     7    29 1   
    20     7    30 1   
    21     8    22 2   
    22     8    23 1   
    23     9    10 1   
    24     9    23 1   
    25     9    31 1   
    26     9    32 1   
    27    10    11 1   
    28    10    12 1   
    29    10    24 1   
    30    11    33 1   
    31    11    34 1   
    32    11    35 1   
    33    12    13 2   
    34    12    36 1   
    35    13    37 1   
    36    14    24 1   
    37    15    38 1   
    38    15    39 1   
    39    15    40 1   
    40    16    20 ar  
    41    17    18 ar  
    42    17    41 1   
    43    18    42 1   
    44    19    21 1   
    45    20    21 1   
    46    21    43 1   
    47    25    44 1   
@<TRIPOS>SUBSTRUCTURE
     1 9ET         1 TEMP              0 ****  ****    0 ROOT
