@<TRIPOS>MOLECULE
9EU
   58    62     1     0     0
SMALL
abcg2


@<TRIPOS>ATOM
      1 CAB          3.0120     1.5660    -2.1780 c3         1 9EU      -0.116400
      2 CAX          4.1700     1.1500    -1.3500 cc         1 9EU       0.425800
      3 NAU          5.0800     1.9590    -0.8860 nd         1 9EU      -0.561100
      4 CBD          5.9440     1.1620    -0.1760 ca         1 9EU       0.011400
      5 CAP          7.1020     1.4650     0.5320 ca         1 9EU       0.401900
      6 NAT          7.7980     0.5240     1.1460 nb         1 9EU      -0.685000
      7 CAJ          7.3760    -0.7470     1.0820 ca         1 9EU       0.339900
      8 CAO          6.2420    -1.1720     0.4140 ca         1 9EU      -0.158000
      9 CBE          5.5210    -0.1720    -0.2250 ca         1 9EU      -0.046200
     10 NBJ          4.3840    -0.1570    -0.9820 na         1 9EU      -0.182600
     11 CAS          3.5630    -1.2990    -1.3330 c3         1 9EU       0.135900
     12 CBB          2.2270    -1.2890    -0.6410 ca         1 9EU      -0.144300
     13 CAY          2.1260    -1.3890     0.7410 ca         1 9EU       0.178000
     14 FAG          3.2550    -1.5170     1.4530 f          1 9EU      -0.169000
     15 CAQ          0.9230    -1.3630     1.4060 ca         1 9EU      -0.103000
     16 CAM          1.0460    -1.1750    -1.3610 ca         1 9EU      -0.086000
     17 CAL         -0.1810    -1.1150    -0.7200 ca         1 9EU      -0.082000
     18 CAZ         -0.2440    -1.1930     0.6650 ca         1 9EU      -0.118600
     19 CAV         -1.5460    -1.1310     1.3780 c          1 9EU       0.621900
     20 OAE         -1.7090    -1.7190     2.4290 o          1 9EU      -0.515100
     21 CBC         -2.6520    -0.4020     0.7360 cc         1 9EU      -0.225400
     22 CAR         -3.9070    -0.9340     0.6700 cd         1 9EU      -0.058400
     23 CBG         -2.7000     0.8620     0.0470 ca         1 9EU      -0.047800
     24 CBA         -1.7830     1.9110    -0.1670 ca         1 9EU       0.065000
     25 CAH         -0.4700     1.9140     0.3850 cg         1 9EU      -0.137000
     26 CAA          0.6340     1.9760     0.8610 c1         1 9EU      -0.214000
     27 CAK         -2.2070     3.0170    -0.8960 ca         1 9EU      -0.104000
     28 CAI         -3.5090     3.1130    -1.3870 ca         1 9EU      -0.100000
     29 CAN         -4.4410     2.1230    -1.1450 ca         1 9EU      -0.094000
     30 CBF         -4.0200     1.0150    -0.4190 ca         1 9EU      -0.088000
     31 NBI         -4.7300    -0.1130    -0.0430 n          1 9EU      -0.094600
     32 CAW         -6.1290    -0.2960    -0.2260 c          1 9EU       0.669100
     33 OAF         -6.8790     0.6410    -0.0510 o          1 9EU      -0.561100
     34 NBH         -6.5040    -1.5390    -0.5540 n          1 9EU      -0.409800
     35 CAC         -7.9210    -1.8510    -0.5420 c3         1 9EU       0.087800
     36 CAD         -5.6660    -2.5230    -1.2200 c3         1 9EU       0.087800
     37 H1           2.8560     0.9030    -3.0290 hc         1 9EU       0.061033
     38 H2           2.0900     1.5730    -1.5930 hc         1 9EU       0.061033
     39 H3           3.1810     2.5720    -2.5520 hc         1 9EU       0.061033
     40 H4           7.4650     2.4860     0.5980 h4         1 9EU       0.033100
     41 H5           7.9860    -1.4750     1.6040 h4         1 9EU       0.018100
     42 H6           5.9590    -2.2150     0.4040 ha         1 9EU       0.127000
     43 H7           3.4130    -1.3160    -2.4130 h1         1 9EU       0.070200
     44 H8           4.1240    -2.2000    -1.0890 h1         1 9EU       0.070200
     45 H9           0.8960    -1.4370     2.4850 ha         1 9EU       0.153000
     46 H10          1.0920    -1.1150    -2.4410 ha         1 9EU       0.118000
     47 H11         -1.0820    -1.0070    -1.3090 ha         1 9EU       0.131000
     48 H12         -4.2630    -1.8670     1.0800 h4         1 9EU       0.231000
     49 H13          1.6070     2.0170     1.2920 ha         1 9EU       0.264000
     50 H14         -1.5100     3.8250    -1.0720 ha         1 9EU       0.122000
     51 H15         -3.7980     3.9900    -1.9500 ha         1 9EU       0.120000
     52 H16         -5.4550     2.2210    -1.5040 ha         1 9EU       0.137000
     53 H17         -8.3860    -1.6300    -1.5050 h1         1 9EU       0.049700
     54 H18         -8.0410    -2.9130    -0.3360 h1         1 9EU       0.049700
     55 H19         -8.4350    -1.2920     0.2340 h1         1 9EU       0.049700
     56 H20         -5.5150    -3.4010    -0.5920 h1         1 9EU       0.049700
     57 H21         -6.1610    -2.8380    -2.1390 h1         1 9EU       0.049700
     58 H22         -4.6990    -2.1150    -1.4950 h1         1 9EU       0.049700
@<TRIPOS>BOND
     1     1     2 1   
     2     1    37 1   
     3     1    38 1   
     4     1    39 1   
     5     2     3 2   
     6     2    10 1   
     7     3     4 1   
     8     4     5 ar  
     9     4     9 ar  
    10     5     6 ar  
    11     5    40 1   
    12     6     7 ar  
    13     7     8 ar  
    14     7    41 1   
    15     8     9 ar  
    16     8    42 1   
    17     9    10 1   
    18    10    11 1   
    19    11    12 1   
    20    11    43 1   
    21    11    44 1   
    22    12    13 ar  
    23    12    16 ar  
    24    13    14 1   
    25    13    15 ar  
    26    15    18 ar  
    27    15    45 1   
    28    16    17 ar  
    29    16    46 1   
    30    17    18 ar  
    31    17    47 1   
    32    18    19 1   
    33    19    20 2   
    34    19    21 1   
    35    21    22 2   
    36    21    23 1   
    37    22    31 1   
    38    22    48 1   
    39    23    24 ar  
    40    23    30 ar  
    41    24    25 1   
    42    24    27 ar  
    43    25    26 3   
    44    26    49 1   
    45    27    28 ar  
    46    27    50 1   
    47    28    29 ar  
    48    28    51 1   
    49    29    30 ar  
    50    29    52 1   
    51    30    31 1   
    52    31    32 1   
    53    32    33 2   
    54    32    34 1   
    55    34    35 1   
    56    34    36 1   
    57    35    53 1   
    58    35    54 1   
    59    35    55 1   
    60    36    56 1   
    61    36    57 1   
    62    36    58 1   
@<TRIPOS>SUBSTRUCTURE
     1 9EU         1 TEMP              0 ****  ****    0 ROOT
