@<TRIPOS>MOLECULE
9EU
   58    62     1     0     0
SMALL
No Charge or Current Charge


@<TRIPOS>ATOM
      1 CAB          2.9530     1.8340    -1.9900 c3         1 9EU      -0.116400
      2 CAX          4.1610     1.2800    -1.2900 cc         1 9EU       0.425800
      3 NAU          5.1790     2.0320    -0.8240 nd         1 9EU      -0.561100
      4 CBD          6.0520     1.0990    -0.2500 ca         1 9EU       0.011400
      5 CAP          7.2910     1.3060     0.3990 ca         1 9EU       0.401900
      6 NAT          8.0170     0.2700     0.9080 nb         1 9EU      -0.685000
      7 CAJ          7.5110    -0.9880     0.7760 ca         1 9EU       0.339900
      8 CAO          6.2820    -1.2660     0.1400 ca         1 9EU      -0.158000
      9 CBE          5.5700    -0.1720    -0.3700 ca         1 9EU      -0.046200
     10 NBJ          4.3750    -0.0770    -1.0250 na         1 9EU      -0.182600
     11 CAS          3.5240    -1.2310    -1.3720 c3         1 9EU       0.135900
     12 CBB          2.1950    -1.2260    -0.6270 ca         1 9EU      -0.144300
     13 CAY          2.1410    -1.4410     0.7640 ca         1 9EU       0.178000
     14 FAG          3.2710    -1.6980     1.4610 f          1 9EU      -0.169000
     15 CAQ          0.9180    -1.3850     1.4490 ca         1 9EU      -0.103000
     16 CAM          0.9980    -0.9840    -1.3270 ca         1 9EU      -0.086000
     17 CAL         -0.2280    -0.9230    -0.6440 ca         1 9EU      -0.082000
     18 CAZ         -0.2800    -1.0970     0.7590 ca         1 9EU      -0.118600
     19 CAV         -1.5800    -0.9940     1.5300 c          1 9EU       0.621900
     20 OAE         -1.7570    -1.6630     2.5420 o          1 9EU      -0.515100
     21 CBC         -2.7030    -0.2650     0.8910 cc         1 9EU      -0.225400
     22 CAR         -3.9260    -0.8560     0.6340 cd         1 9EU      -0.058400
     23 CBG         -2.7130     0.9510     0.0930 ca         1 9EU      -0.047800
     24 CBA         -1.7850     2.0150     0.0070 ca         1 9EU       0.065000
     25 CAH         -0.5770     2.0640     0.7820 cg         1 9EU      -0.137000
     26 CAA          0.4480     2.1260     1.4340 c1         1 9EU      -0.214000
     27 CAK         -2.0950     3.0970    -0.8450 ca         1 9EU      -0.104000
     28 CAI         -3.3080     3.1220    -1.5660 ca         1 9EU      -0.100000
     29 CAN         -4.2410     2.0770    -1.4270 ca         1 9EU      -0.094000
     30 CBF         -3.9290     1.0060    -0.5730 ca         1 9EU      -0.088000
     31 NBI         -4.7300    -0.1470    -0.2740 n          1 9EU      -0.094600
     32 CAW         -6.1050    -0.3750    -0.5650 c          1 9EU       0.669100
     33 OAF         -6.8550     0.5620    -0.8150 o          1 9EU      -0.561100
     34 NBH         -6.6110    -1.7030    -0.6020 n          1 9EU      -0.409800
     35 CAC         -8.0670    -1.9260    -0.7450 c3         1 9EU       0.087800
     36 CAD         -5.7440    -2.8880    -0.8150 c3         1 9EU       0.087800
     37 H1           2.7460     1.2780    -2.9100 hc         1 9EU       0.061033
     38 H2           2.0710     1.7720    -1.3430 hc         1 9EU       0.061033
     39 H3           3.1030     2.8860    -2.2570 hc         1 9EU       0.061033
     40 H4           7.7070     2.3060     0.5130 h4         1 9EU       0.033100
     41 H5           8.1100    -1.7960     1.1940 h4         1 9EU       0.018100
     42 H6           5.9200    -2.2870     0.0640 ha         1 9EU       0.127000
     43 H7           3.3440    -1.2110    -2.4550 h1         1 9EU       0.070200
     44 H8           4.0550    -2.1650    -1.1550 h1         1 9EU       0.070200
     45 H9           0.9080    -1.5400     2.5250 ha         1 9EU       0.153000
     46 H10          1.0140    -0.8280    -2.4040 ha         1 9EU       0.118000
     47 H11         -1.1330    -0.7370    -1.2160 ha         1 9EU       0.131000
     48 H12         -4.3060    -1.7890     1.0370 h4         1 9EU       0.231000
     49 H13          1.3550     2.1750     2.0030 ha         1 9EU       0.264000
     50 H14         -1.4000     3.9280    -0.9400 ha         1 9EU       0.122000
     51 H15         -3.5320     3.9630    -2.2190 ha         1 9EU       0.120000
     52 H16         -5.1800     2.1100    -1.9750 ha         1 9EU       0.137000
     53 H17         -8.3810    -1.6840    -1.7690 h1         1 9EU       0.049700
     54 H18         -8.3150    -2.9740    -0.5330 h1         1 9EU       0.049700
     55 H19         -8.6160    -1.2880    -0.0400 h1         1 9EU       0.049700
     56 H20         -5.5680    -3.3990     0.1400 h1         1 9EU       0.049700
     57 H21         -6.2370    -3.5900    -1.5000 h1         1 9EU       0.049700
     58 H22         -4.7860    -2.5970    -1.2640 h1         1 9EU       0.049700
@<TRIPOS>BOND
     1     1     2 1   
     2     1    37 1   
     3     1    38 1   
     4     1    39 1   
     5     2     3 2   
     6     2    10 1   
     7     3     4 1   
     8     4     5 ar  
     9     4     9 ar  
    10     5     6 ar  
    11     5    40 1   
    12     6     7 ar  
    13     7     8 ar  
    14     7    41 1   
    15     8     9 ar  
    16     8    42 1   
    17     9    10 1   
    18    10    11 1   
    19    11    12 1   
    20    11    43 1   
    21    11    44 1   
    22    12    13 ar  
    23    12    16 ar  
    24    13    14 1   
    25    13    15 ar  
    26    15    18 ar  
    27    15    45 1   
    28    16    17 ar  
    29    16    46 1   
    30    17    18 ar  
    31    17    47 1   
    32    18    19 1   
    33    19    20 2   
    34    19    21 1   
    35    21    22 2   
    36    21    23 1   
    37    22    31 1   
    38    22    48 1   
    39    23    24 ar  
    40    23    30 ar  
    41    24    25 1   
    42    24    27 ar  
    43    25    26 3   
    44    26    49 1   
    45    27    28 ar  
    46    27    50 1   
    47    28    29 ar  
    48    28    51 1   
    49    29    30 ar  
    50    29    52 1   
    51    30    31 1   
    52    31    32 1   
    53    32    33 2   
    54    32    34 1   
    55    34    35 1   
    56    34    36 1   
    57    35    53 1   
    58    35    54 1   
    59    35    55 1   
    60    36    56 1   
    61    36    57 1   
    62    36    58 1   
@<TRIPOS>SUBSTRUCTURE
     1 9EU         1 TEMP              0 ****  ****    0 ROOT
