@<TRIPOS>MOLECULE
9EV
   50    51     1     0     0
SMALL
bcc


@<TRIPOS>ATOM
      1 C13         -0.4200    -0.0660    -1.0880 c5         1 9EV       0.438600
      2 C15         -0.8130     2.0830    -0.4820 c          1 9EV       0.707600
      3 C17          0.1800     1.4750     0.4830 c5         1 9EV       0.034800
      4 C20          3.1080     0.4930     0.1010 c3         1 9EV      -0.078400
      5 C21          4.4570     0.6060    -0.5990 c3         1 9EV      -0.078400
      6 C22          5.6220     0.6300     0.3830 c3         1 9EV      -0.100400
      7 C28         -0.6960    -2.4170    -0.4870 ca         1 9EV       0.022800
      8 C02         -1.3650    -3.5240     0.0390 ca         1 9EV       0.269600
      9 C04         -3.1450    -2.1960     0.5840 ca         1 9EV       0.388200
     10 C05         -2.5690    -1.0310     0.0800 ca         1 9EV      -0.083600
     11 C06         -3.3670     0.2560     0.1720 c3         1 9EV       0.245700
     12 C12         -1.2890    -1.1520    -0.4770 ca         1 9EV      -0.128300
     13 C23          7.0060     0.7490    -0.2760 c3         1 9EV       0.021500
     14 C1           8.0590     0.9260     0.8390 c          1 9EV       0.935600
     15 N03         -2.5730    -3.3910     0.5630 nb         1 9EV      -0.673000
     16 N18          0.6680     0.2980    -0.2070 n3         1 9EV      -0.722600
     17 N24          7.3640    -0.3560    -1.1520 n8         1 9EV      -0.880800
     18 O07         -4.5910     0.0210     0.7840 os         1 9EV      -0.565200
     19 O09         -4.6310     2.1670     2.1860 o          1 9EV      -0.921833
     20 O10         -5.8090     2.1020    -0.0900 o          1 9EV      -0.921833
     21 O11         -6.7230     0.7080     1.8670 o          1 9EV      -0.921833
     22 O14         -1.1410     1.1410    -1.3720 os         1 9EV      -0.411900
     23 O16         -1.2770     3.1870    -0.5130 o          1 9EV      -0.540500
     24 O27          8.7510    -0.0680     1.1370 o          1 9EV      -0.845300
     25 O29          0.5370    -2.5250    -1.0220 oh         1 9EV      -0.509100
     26 P08         -5.5230     1.3900     1.2260 p5         1 9EV       1.272900
     27 H1          -0.0350    -0.4210    -2.0450 h2         1 9EV       0.069700
     28 H2           0.9720     2.1790     0.7320 h1         1 9EV       0.093700
     29 H3          -0.3380     1.2270     1.4170 h1         1 9EV       0.093700
     30 H4           3.0680    -0.4330     0.6820 hc         1 9EV       0.047200
     31 H5           3.0050     1.3150     0.8170 hc         1 9EV       0.047200
     32 H6           4.5620    -0.2340    -1.2940 hc         1 9EV       0.021200
     33 H7           4.4820     1.5150    -1.2110 hc         1 9EV       0.021200
     34 H8           5.4870     1.4720     1.0670 hc         1 9EV       0.045200
     35 H9           5.5980    -0.2770     0.9990 hc         1 9EV       0.045200
     36 H10          0.1800    -4.9180     0.6240 hc         1 9EV       0.025700
     37 H11         -1.4290    -5.6110     0.4500 hc         1 9EV       0.025700
     38 H12         -0.4850    -5.2210    -0.9800 hc         1 9EV       0.025700
     39 H13         -4.1290    -2.1520     1.0290 h4         1 9EV       0.077100
     40 H14         -2.7980     0.9990     0.7480 h1         1 9EV       0.035700
     41 H15         -3.5000     0.6740    -0.8320 h1         1 9EV       0.035700
     42 H16          1.9700     1.4270    -1.4770 h1         1 9EV       0.027700
     43 H17          2.0830    -0.3260    -1.5830 h1         1 9EV       0.027700
     44 H18          7.0030     1.6650    -0.8810 h1         1 9EV       0.039700
     45 H21          7.4750    -1.1910    -0.5900 hn         1 9EV       0.317300
     46 H22          6.6150    -0.5440    -1.8050 hn         1 9EV       0.317300
     47 H26          0.8230    -3.4440    -1.0600 ho         1 9EV       0.407000
     48 OXT          8.0980     2.0480     1.3840 o          1 9EV      -0.845300
     49 C01         -0.7360    -4.8850     0.0290 c3         1 9EV      -0.127400
     50 C19          1.9500     0.5000    -0.8820 c3         1 9EV       0.171800
@<TRIPOS>BOND
     1     1    12 1   
     2     1    16 1   
     3     1    22 1   
     4     1    27 1   
     5     2     3 1   
     6     2    22 1   
     7     2    23 2   
     8     3    16 1   
     9     3    28 1   
    10     3    29 1   
    11     4     5 1   
    12     4    30 1   
    13     4    31 1   
    14     4    50 1   
    15     5     6 1   
    16     5    32 1   
    17     5    33 1   
    18     6    13 1   
    19     6    34 1   
    20     6    35 1   
    21     7     8 ar  
    22     7    12 ar  
    23     7    25 1   
    24     8    15 ar  
    25     8    49 1   
    26     9    10 ar  
    27     9    15 ar  
    28     9    39 1   
    29    10    11 1   
    30    10    12 ar  
    31    11    18 1   
    32    11    40 1   
    33    11    41 1   
    34    13    14 1   
    35    13    17 1   
    36    13    44 1   
    37    14    24 1   
    38    14    48 1   
    39    16    50 1   
    40    17    45 1   
    41    17    46 1   
    42    18    26 1   
    43    19    26 1   
    44    20    26 1   
    45    21    26 1   
    46    25    47 1   
    47    36    49 1   
    48    37    49 1   
    49    38    49 1   
    50    42    50 1   
    51    43    50 1   
@<TRIPOS>SUBSTRUCTURE
     1 9EV         1 TEMP              0 ****  ****    0 ROOT
