@<TRIPOS>MOLECULE
9EV
   50    51     1     0     0
SMALL
No Charge or Current Charge


@<TRIPOS>ATOM
      1 C13         -0.7630     0.0140    -1.7630 c5         1 9EV       0.461800
      2 C15         -1.4400     2.1910    -1.9240 c          1 9EV       0.632100
      3 C17          0.0320     2.1490    -1.5090 c5         1 9EV       0.034800
      4 C20          2.5590     1.0360    -0.0410 c3         1 9EV      -0.078400
      5 C21          3.9780     0.4260     0.0050 c3         1 9EV      -0.078400
      6 C22          4.9530     1.2260     0.9060 c3         1 9EV      -0.100400
      7 C28         -1.0890    -2.5130    -1.8160 ca         1 9EV       0.088100
      8 C02         -1.4460    -3.7350    -1.1840 ca         1 9EV       0.204300
      9 C04         -1.9610    -2.6420     0.7900 ca         1 9EV       0.322900
     10 C05         -1.6470    -1.3740     0.2540 ca         1 9EV      -0.018300
     11 C06         -1.7860    -0.1460     1.1630 c3         1 9EV       0.268900
     12 C12         -1.1810    -1.3000    -1.0930 ca         1 9EV      -0.128300
     13 C23          6.4100     0.6890     0.9180 c3         1 9EV       0.021500
     14 C1           7.3990     1.7520     1.5630 c          1 9EV       0.725000
     15 N03         -1.8680    -3.8020     0.0950 nb         1 9EV      -0.673000
     16 N18          0.2190     0.7820    -0.9590 n3         1 9EV      -0.722600
     17 N24          6.4450    -0.7020     1.4980 n8         1 9EV      -0.991200
     18 O07         -2.8740    -0.3340     2.0780 os         1 9EV      -0.588400
     19 O09         -1.9510     0.9090     4.0780 o          1 9EV      -0.921833
     20 O10         -3.4340     2.0910     2.5400 o          1 9EV      -0.921833
     21 O11         -4.3170     0.3730     4.0090 o          1 9EV      -0.921833
     22 O14         -1.8930     0.9050    -1.8980 os         1 9EV      -0.435100
     23 O16         -2.1330     3.1620    -2.1990 o          1 9EV      -0.465000
     24 O27          7.3110     1.9830     2.7640 o          1 9EV      -0.740000
     25 O29         -0.6540    -2.5050    -3.1200 oh         1 9EV      -0.548100
     26 P08         -3.1420     0.7880     3.1960 p5         1 9EV       1.272900
     27 H1          -0.3480    -0.1700    -2.7640 h2         1 9EV       0.069700
     28 H2           0.6360     2.3310    -2.4080 h1         1 9EV       0.093700
     29 H3           0.2270     2.9390    -0.7720 h1         1 9EV       0.093700
     30 H4           2.1460     1.0690     0.9740 hc         1 9EV       0.047200
     31 H5           2.6260     2.0720    -0.3960 hc         1 9EV       0.047200
     32 H6           3.9060    -0.6080     0.3620 hc         1 9EV       0.021200
     33 H7           4.3820     0.3860    -1.0150 hc         1 9EV       0.021200
     34 H8           4.9740     2.2640     0.5520 hc         1 9EV       0.045200
     35 H9           4.5640     1.2560     1.9310 hc         1 9EV       0.045200
     36 H10         -0.3360    -5.2730    -2.2470 hc         1 9EV       0.025700
     37 H11         -1.6760    -5.9090    -1.2880 hc         1 9EV       0.025700
     38 H12         -2.0080    -5.0690    -2.8060 hc         1 9EV       0.025700
     39 H13         -2.2960    -2.7410     1.8230 h4         1 9EV       0.077100
     40 H14         -0.8420    -0.0040     1.7050 h1         1 9EV       0.035700
     41 H15         -1.9660     0.7550     0.5680 h1         1 9EV       0.035700
     42 H16          1.9980     0.2330    -1.9700 h1         1 9EV       0.027700
     43 H17          1.5730    -0.7960    -0.5970 h1         1 9EV       0.027700
     44 H18          6.7180     0.5930    -0.1330 h1         1 9EV       0.039700
     45 H21          6.2390    -0.6410     2.5030 hn         1 9EV       0.372500
     46 H22          5.6580    -1.2380     1.1170 hn         1 9EV       0.372500
     47 H26         -0.6560    -3.4260    -3.4590 ho         1 9EV       0.446000
     48 OXT          8.2620     2.2510     0.8510 o          1 9EV      -0.740000
     49 C01         -1.3620    -5.0690    -1.9200 c3         1 9EV      -0.127400
     50 C19          1.5950     0.2450    -0.9480 c3         1 9EV       0.171800
@<TRIPOS>BOND
     1     1    12 1   
     2     1    16 1   
     3     1    22 1   
     4     1    27 1   
     5     2     3 1   
     6     2    22 1   
     7     2    23 2   
     8     3    16 1   
     9     3    28 1   
    10     3    29 1   
    11     4     5 1   
    12     4    30 1   
    13     4    31 1   
    14     4    50 1   
    15     5     6 1   
    16     5    32 1   
    17     5    33 1   
    18     6    13 1   
    19     6    34 1   
    20     6    35 1   
    21     7     8 ar  
    22     7    12 ar  
    23     7    25 1   
    24     8    15 ar  
    25     8    49 1   
    26     9    10 ar  
    27     9    15 ar  
    28     9    39 1   
    29    10    11 1   
    30    10    12 ar  
    31    11    18 1   
    32    11    40 1   
    33    11    41 1   
    34    13    14 1   
    35    13    17 1   
    36    13    44 1   
    37    14    24 1   
    38    14    48 1   
    39    16    50 1   
    40    17    45 1   
    41    17    46 1   
    42    18    26 1   
    43    19    26 1   
    44    20    26 1   
    45    21    26 1   
    46    25    47 1   
    47    36    49 1   
    48    37    49 1   
    49    38    49 1   
    50    42    50 1   
    51    43    50 1   
@<TRIPOS>SUBSTRUCTURE
     1 9EV         1 TEMP              0 ****  ****    0 ROOT
