@<TRIPOS>MOLECULE
9EW
   15    16     1     0     0
SMALL
bcc


@<TRIPOS>ATOM
      1 C4           1.7250     1.1580    -0.0570 ca         1 9EW      -0.136000
      2 C5           0.3620     0.8950    -0.0160 ca         1 9EW       0.099100
      3 C6          -0.1540    -0.3870     0.0740 ca         1 9EW      -0.303900
      4 C7          -1.5680    -0.1490     0.0870 cc         1 9EW       0.584200
      5 N1          -1.8410     1.1140     0.0150 nd         1 9EW      -0.417200
      6 C3           2.5540     0.0520    -0.0030 ca         1 9EW      -0.079000
      7 C1           0.6910    -1.4950     0.1280 ca         1 9EW      -0.052000
      8 C2           2.0500    -1.2560     0.0890 ca         1 9EW      -0.160000
      9 O1          -0.6380     1.7880    -0.0500 os         1 9EW      -0.010600
     10 O2          -2.5580    -1.0250     0.1590 oh         1 9EW      -0.538600
     11 H1           2.1160     2.1640    -0.1280 ha         1 9EW       0.159000
     12 H3           3.6250     0.1990    -0.0310 ha         1 9EW       0.138000
     13 H4           0.3060    -2.5040     0.2000 ha         1 9EW       0.135000
     14 H5           2.7430    -2.0850     0.1290 ha         1 9EW       0.139000
     15 H2          -2.2220    -1.9270     0.1970 ho         1 9EW       0.443000
@<TRIPOS>BOND
     1     1     2 ar  
     2     1     6 ar  
     3     1    11 1   
     4     2     3 ar  
     5     2     9 1   
     6     3     4 1   
     7     3     7 ar  
     8     4     5 2   
     9     4    10 1   
    10     5     9 1   
    11     6     8 ar  
    12     6    12 1   
    13     7     8 ar  
    14     7    13 1   
    15     8    14 1   
    16    10    15 1   
@<TRIPOS>SUBSTRUCTURE
     1 9EW         1 TEMP              0 ****  ****    0 ROOT
