@<TRIPOS>MOLECULE
9EW
   15    16     1     0     0
SMALL
No Charge or Current Charge


@<TRIPOS>ATOM
      1 C4           1.7130     1.1460    -0.0550 ca         1 9EW      -0.118000
      2 C5           0.3320     0.9240    -0.0160 ca         1 9EW       0.099100
      3 C6          -0.1870    -0.3330     0.0710 ca         1 9EW      -0.303900
      4 C7          -1.5930    -0.1150     0.0830 cc         1 9EW       0.584200
      5 N1          -1.9310     1.1660     0.0100 nd         1 9EW      -0.318700
      6 C3           2.5640     0.0200    -0.0010 ca         1 9EW      -0.061000
      7 C1           0.6210    -1.4800     0.1280 ca         1 9EW      -0.034000
      8 C2           2.0190    -1.2850     0.0900 ca         1 9EW      -0.142000
      9 O1          -0.6560     1.8810    -0.0570 os         1 9EW      -0.109100
     10 O2          -2.4530    -1.1370     0.1620 oh         1 9EW      -0.577600
     11 H1           2.1150     2.1540    -0.1250 ha         1 9EW       0.141000
     12 H3           3.6430     0.1560    -0.0290 ha         1 9EW       0.120000
     13 H4           0.2030    -2.4830     0.1970 ha         1 9EW       0.117000
     14 H5           2.6840    -2.1450     0.1310 ha         1 9EW       0.121000
     15 H2          -1.8820    -1.9270     0.2010 ho         1 9EW       0.482000
@<TRIPOS>BOND
     1     1     2 ar  
     2     1     6 ar  
     3     1    11 1   
     4     2     3 ar  
     5     2     9 1   
     6     3     4 1   
     7     3     7 ar  
     8     4     5 2   
     9     4    10 1   
    10     5     9 1   
    11     6     8 ar  
    12     6    12 1   
    13     7     8 ar  
    14     7    13 1   
    15     8    14 1   
    16    10    15 1   
@<TRIPOS>SUBSTRUCTURE
     1 9EW         1 TEMP              0 ****  ****    0 ROOT
