@<TRIPOS>MOLECULE
9EX
   16    15     1     0     0
SMALL
No Charge or Current Charge


@<TRIPOS>ATOM
      1 C2          -0.4660    -0.0690    -0.1440 c3         1 9EX      -0.052700
      2 C4          -0.4460    -1.5450     0.3340 c3         1 9EX      -0.085100
      3 O1          -2.9070     0.0570    -0.3870 oh         1 9EX      -0.657000
      4 C3          -1.7760     0.6580     0.2560 c3         1 9EX       0.164600
      5 C1           0.7650     0.7190     0.3690 c3         1 9EX       0.082600
      6 S1           2.3930     0.1050    -0.2760 sh         1 9EX      -0.448800
      7 H1          -0.4150    -0.0690    -1.2400 hc         1 9EX       0.073700
      8 H2          -0.4870    -1.6010     1.4280 hc         1 9EX       0.043033
      9 H3          -1.3020    -2.1000    -0.0690 hc         1 9EX       0.043033
     10 H4           0.4630    -2.0570    -0.0010 hc         1 9EX       0.043033
     11 H5          -3.7010     0.5570    -0.0940 ho         1 9EX       0.443000
     12 H6          -1.8930     0.6220     1.3470 h1         1 9EX       0.015700
     13 H7          -1.7040     1.7140    -0.0370 h1         1 9EX       0.015700
     14 H8           0.6690     1.7710     0.0700 h1         1 9EX       0.055700
     15 H9           0.7900     0.6850     1.4660 h1         1 9EX       0.055700
     16 H10          3.1620     1.0150     0.3720 hs         1 9EX       0.206800
@<TRIPOS>BOND
     1     1     2 1   
     2     1     4 1   
     3     1     5 1   
     4     1     7 1   
     5     2     8 1   
     6     2     9 1   
     7     2    10 1   
     8     3     4 1   
     9     3    11 1   
    10     4    12 1   
    11     4    13 1   
    12     5     6 1   
    13     5    14 1   
    14     5    15 1   
    15     6    16 1   
@<TRIPOS>SUBSTRUCTURE
     1 9EX         1 TEMP              0 ****  ****    0 ROOT
