@<TRIPOS>MOLECULE
9EX
   16    15     1     0     0
SMALL
abcg2


@<TRIPOS>ATOM
      1 C2          -0.4550    -0.0620    -0.1540 c3         1 9EX      -0.052700
      2 C4          -0.4540    -1.5140     0.3120 c3         1 9EX      -0.085100
      3 O1          -2.8370     0.0210    -0.3620 oh         1 9EX      -0.657000
      4 C3          -1.7370     0.6580     0.2450 c3         1 9EX       0.164600
      5 C1           0.7250     0.7250     0.4120 c3         1 9EX       0.082600
      6 S1           2.3030     0.0370    -0.1980 sh         1 9EX      -0.448800
      7 H1          -0.3840    -0.0340    -1.2470 hc         1 9EX       0.073700
      8 H2          -0.4880    -1.5690     1.4030 hc         1 9EX       0.043033
      9 H3          -1.3150    -2.0550    -0.0770 hc         1 9EX       0.043033
     10 H4           0.4400    -2.0450    -0.0170 hc         1 9EX       0.043033
     11 H5          -3.6380     0.4690    -0.0750 ho         1 9EX       0.443000
     12 H6          -1.8240     0.6530     1.3410 h1         1 9EX       0.015700
     13 H7          -1.6670     1.7100    -0.0620 h1         1 9EX       0.015700
     14 H8           0.6620     1.7680     0.1020 h1         1 9EX       0.055700
     15 H9           0.7150     0.6950     1.5030 h1         1 9EX       0.055700
     16 H10          3.0990     1.0050     0.2670 hs         1 9EX       0.206800
@<TRIPOS>BOND
     1     1     2 1   
     2     1     4 1   
     3     1     5 1   
     4     1     7 1   
     5     2     8 1   
     6     2     9 1   
     7     2    10 1   
     8     3     4 1   
     9     3    11 1   
    10     4    12 1   
    11     4    13 1   
    12     5     6 1   
    13     5    14 1   
    14     5    15 1   
    15     6    16 1   
@<TRIPOS>SUBSTRUCTURE
     1 9EX         1 TEMP              0 ****  ****    0 ROOT
