@<TRIPOS>MOLECULE
9EY
   67    71     1     0     0
SMALL
abcg2


@<TRIPOS>ATOM
      1 C13          4.5950     0.3170     0.2430 ce         1 9EY      -0.081200
      2 C18         -0.3880     1.8970    -2.6860 c3         1 9EY      -0.078400
      3 C17          0.3100     2.0890    -1.3380 c3         1 9EY       0.099400
      4 C15          2.4420     1.3030    -0.3810 c          1 9EY       0.605300
      5 C19         -1.0190     0.5090    -2.9200 c3         1 9EY      -0.075400
      6 C20         -2.3940     0.5960    -3.5960 c3         1 9EY      -0.074400
      7 C22         -0.6700     1.9500    -0.2050 cc         1 9EY       0.389800
      8 C24         -1.4990     1.7370     1.8210 cc         1 9EY      -0.209000
      9 C34         -8.5700    -1.2080     1.0590 c          1 9EY       0.641100
     10 C27         -3.8270     0.9460     1.0630 ca         1 9EY      -0.192500
     11 C2           7.9970    -1.3100     0.4160 ca         1 9EY      -0.098000
     12 C3           7.6800    -2.6440     0.2250 ca         1 9EY      -0.085000
     13 C4           6.3540    -2.9910     0.0170 ca         1 9EY       0.126000
     14 C5           5.3510    -2.0380     0.0080 ca         1 9EY      -0.087000
     15 C6           5.6550    -0.6920     0.2110 ca         1 9EY      -0.032800
     16 C7           6.9950    -0.3540     0.4140 ca         1 9EY       0.010800
     17 N8           7.3610     0.9990     0.6080 na         1 9EY      -0.001500
     18 C9           8.0800     1.5540     1.5900 cc         1 9EY       0.393400
     19 N10          8.2020     2.8270     1.3310 nd         1 9EY      -0.376000
     20 N11          7.5520     3.0330     0.1820 nd         1 9EY      -0.036000
     21 N12          7.0480     1.9550    -0.2640 nc         1 9EY      -0.188800
     22 C14          3.4820     0.2530    -0.4880 cf         1 9EY      -0.275200
     23 O16          2.5250     2.2480     0.3980 o          1 9EY      -0.625100
     24 N21          1.4000     1.1350    -1.2100 ns         1 9EY      -0.502900
     25 N23         -0.3810     2.0540     1.1070 na         1 9EY      -0.272500
     26 C25         -2.4650     1.4540     0.8870 cd         1 9EY       0.317500
     27 N26         -1.9240     1.6210    -0.3570 nd         1 9EY      -0.726000
     28 C28         -4.4660     1.1010     2.2920 ca         1 9EY      -0.050000
     29 C29         -5.7200     0.5850     2.5420 ca         1 9EY      -0.203000
     30 C30         -6.3950    -0.1120     1.5380 ca         1 9EY       0.028000
     31 C31         -5.7900    -0.2800     0.2960 ca         1 9EY      -0.174000
     32 C32         -4.5180     0.2400     0.0520 ca         1 9EY       0.043000
     33 N33         -7.6590    -0.6020     1.8630 ns         1 9EY      -0.139000
     34 O35         -8.4350    -1.4620    -0.1170 o          1 9EY      -0.506000
     35 O36         -9.6650    -1.4900     1.7640 os         1 9EY      -0.463100
     36 C37        -10.7320    -2.1340     1.0740 c3         1 9EY       0.172900
     37 C38         -3.2700    -0.6470    -3.4350 c3         1 9EY      -0.160400
     38 C39         -4.1240    -0.8000    -2.1810 c          1 9EY       0.603100
     39 N40         -3.9070     0.1080    -1.2010 ns         1 9EY      -0.161000
     40 O41         -4.9460    -1.7020    -2.1150 o          1 9EY      -0.591100
     41 H46          4.7300     1.1600     0.9120 ha         1 9EY       0.213000
     42 H50         -1.1530     2.6710    -2.7630 hc         1 9EY       0.059700
     43 H49          0.3420     2.1180    -3.4680 hc         1 9EY       0.059700
     44 H48          0.7410     3.0940    -1.3170 h1         1 9EY       0.085700
     45 H51         -0.3620    -0.0980    -3.5490 hc         1 9EY       0.042700
     46 H52         -1.1060    -0.0400    -1.9810 hc         1 9EY       0.042700
     47 H54         -2.9340     1.4780    -3.2400 hc         1 9EY       0.049700
     48 H53         -2.2490     0.7720    -4.6640 hc         1 9EY       0.049700
     49 H57         -1.5030     1.7190     2.8980 h4         1 9EY       0.163000
     50 H42          9.0290    -1.0180     0.5530 ha         1 9EY       0.136000
     51 H43          8.4570    -3.3940     0.2310 ha         1 9EY       0.143000
     52 H44          4.3220    -2.3410    -0.1220 ha         1 9EY       0.141000
     53 H45          8.4660     1.0190     2.4410 h5         1 9EY       0.079100
     54 H47          3.3220    -0.5500    -1.1990 ha         1 9EY       0.184000
     55 H55          1.3820     0.3200    -1.8040 hn         1 9EY       0.325500
     56 H56          0.5210     2.3030     1.4900 hn         1 9EY       0.380000
     57 H58         -3.9650     1.6490     3.0800 ha         1 9EY       0.108000
     58 H59         -6.1780     0.7290     3.5130 ha         1 9EY       0.112000
     59 H60         -6.2970    -0.8140    -0.4860 ha         1 9EY       0.178000
     60 H61         -7.9470    -0.4520     2.8190 hn         1 9EY       0.163000
     61 H62        -11.5250    -2.2570     1.8060 h1         1 9EY       0.049700
     62 H63        -11.0980    -1.5290     0.2450 h1         1 9EY       0.049700
     63 H64        -10.4340    -3.1140     0.7000 h1         1 9EY       0.049700
     64 H65         -3.9770    -0.7040    -4.2660 hc         1 9EY       0.069700
     65 H66         -2.6600    -1.5530    -3.5120 hc         1 9EY       0.069700
     66 H67         -3.1030     0.7320    -1.3080 hn         1 9EY       0.205000
     67 CL1          5.9400    -4.6500    -0.2210 cl         1 9EY      -0.173000
@<TRIPOS>BOND
     1     1    15 1   
     2     1    22 2   
     3     1    41 1   
     4     2     3 1   
     5     2     5 1   
     6     2    42 1   
     7     2    43 1   
     8     3     7 1   
     9     3    24 1   
    10     3    44 1   
    11     4    22 1   
    12     4    23 2   
    13     4    24 1   
    14     5     6 1   
    15     5    45 1   
    16     5    46 1   
    17     6    37 1   
    18     6    47 1   
    19     6    48 1   
    20     7    25 1   
    21     7    27 2   
    22     8    25 1   
    23     8    26 2   
    24     8    49 1   
    25     9    33 1   
    26     9    34 2   
    27     9    35 1   
    28    10    26 1   
    29    10    28 ar  
    30    10    32 ar  
    31    11    12 ar  
    32    11    16 ar  
    33    11    50 1   
    34    12    13 ar  
    35    12    51 1   
    36    13    14 ar  
    37    13    67 1   
    38    14    15 ar  
    39    14    52 1   
    40    15    16 ar  
    41    16    17 1   
    42    17    18 1   
    43    17    21 1   
    44    18    19 2   
    45    18    53 1   
    46    19    20 1   
    47    20    21 2   
    48    22    54 1   
    49    24    55 1   
    50    25    56 1   
    51    26    27 1   
    52    28    29 ar  
    53    28    57 1   
    54    29    30 ar  
    55    29    58 1   
    56    30    31 ar  
    57    30    33 1   
    58    31    32 ar  
    59    31    59 1   
    60    32    39 1   
    61    33    60 1   
    62    35    36 1   
    63    36    61 1   
    64    36    62 1   
    65    36    63 1   
    66    37    38 1   
    67    37    64 1   
    68    37    65 1   
    69    38    39 1   
    70    38    40 2   
    71    39    66 1   
@<TRIPOS>SUBSTRUCTURE
     1 9EY         1 TEMP              0 ****  ****    0 ROOT
