@<TRIPOS>MOLECULE
9EY
   67    71     1     0     0
SMALL
No Charge or Current Charge


@<TRIPOS>ATOM
      1 C13          4.7220     0.3530     0.1100 ce         1 9EY      -0.081200
      2 C18         -0.4810     1.8100    -2.8360 c3         1 9EY      -0.078400
      3 C17          0.2400     1.9690    -1.4570 c3         1 9EY       0.099400
      4 C15          2.4860     1.3060    -0.5330 c          1 9EY       0.605300
      5 C19         -0.9920     0.3680    -3.1650 c3         1 9EY      -0.075400
      6 C20         -2.3590     0.3080    -3.9170 c3         1 9EY      -0.074400
      7 C22         -0.6990     1.7720    -0.2660 cc         1 9EY       0.389800
      8 C24         -1.5380     1.7320     1.8050 cc         1 9EY      -0.209000
      9 C34         -8.8160    -1.1180     1.2130 c          1 9EY       0.641100
     10 C27         -3.8000     0.6690     1.1510 ca         1 9EY      -0.192500
     11 C2           8.2510    -1.0970     0.4730 ca         1 9EY      -0.098000
     12 C3           8.0540    -2.4030    -0.0040 ca         1 9EY      -0.085000
     13 C4           6.7840    -2.8000    -0.4430 ca         1 9EY       0.126000
     14 C5           5.7110    -1.8970    -0.4080 ca         1 9EY      -0.087000
     15 C6           5.8920    -0.5800     0.0670 ca         1 9EY      -0.032800
     16 C7           7.1800    -0.1790     0.5120 ca         1 9EY       0.010800
     17 N8           7.4240     1.1130     0.9810 na         1 9EY      -0.001500
     18 C9           7.8910     1.4200     2.2250 cc         1 9EY       0.393400
     19 N10          8.0990     2.7260     2.2100 nd         1 9EY      -0.376000
     20 N11          7.7730     3.1650     0.9380 nd         1 9EY      -0.036000
     21 N12          7.3840     2.1840     0.1620 nc         1 9EY      -0.188800
     22 C14          3.5920     0.3270    -0.6580 cf         1 9EY      -0.275200
     23 O16          2.4950     2.2160     0.2830 o          1 9EY      -0.625100
     24 N21          1.4380     1.1140    -1.3980 ns         1 9EY      -0.502900
     25 N23         -0.4250     2.0740     1.0460 na         1 9EY      -0.272500
     26 C25         -2.4260     1.1800     0.9110 cd         1 9EY       0.317500
     27 N26         -1.9090     1.2680    -0.3530 nd         1 9EY      -0.726000
     28 C28         -4.4300     0.9520     2.3800 ca         1 9EY      -0.050000
     29 C29         -5.7600     0.5700     2.6100 ca         1 9EY      -0.203000
     30 C30         -6.5000    -0.1000     1.6230 ca         1 9EY       0.028000
     31 C31         -5.8790    -0.3970     0.3930 ca         1 9EY      -0.174000
     32 C32         -4.5420    -0.0280     0.1500 ca         1 9EY       0.043000
     33 N33         -7.8420    -0.4500     1.9310 ns         1 9EY      -0.139000
     34 O35         -8.7020    -1.5790     0.0850 o          1 9EY      -0.506000
     35 O36         -9.9530    -1.1920     1.9710 os         1 9EY      -0.463100
     36 C37        -11.0980    -1.8570     1.4060 c3         1 9EY       0.172900
     37 C38         -3.3180    -0.8210    -3.4230 c3         1 9EY      -0.160400
     38 C39         -4.3360    -0.3240    -2.3740 c          1 9EY       0.603100
     39 N40         -3.9210    -0.4310    -1.0620 ns         1 9EY      -0.161000
     40 O41         -5.4240     0.1420    -2.6970 o          1 9EY      -0.591100
     41 H46          4.8050     1.1520     0.8510 ha         1 9EY       0.213000
     42 H50         -1.3200     2.5160    -2.8480 hc         1 9EY       0.059700
     43 H49          0.1940     2.1380    -3.6360 hc         1 9EY       0.059700
     44 H48          0.5830     3.0110    -1.4050 h1         1 9EY       0.085700
     45 H51         -0.2330    -0.1450    -3.7700 hc         1 9EY       0.042700
     46 H52         -1.0550    -0.2250    -2.2470 hc         1 9EY       0.042700
     47 H54         -2.8830     1.2690    -3.8540 hc         1 9EY       0.049700
     48 H53         -2.1500     0.1540    -4.9840 hc         1 9EY       0.049700
     49 H57         -1.6010     1.8760     2.8760 h4         1 9EY       0.163000
     50 H42          9.2430    -0.7950     0.8050 ha         1 9EY       0.136000
     51 H43          8.8840    -3.1050    -0.0340 ha         1 9EY       0.143000
     52 H44          4.7330    -2.2350    -0.7380 ha         1 9EY       0.141000
     53 H45          8.0430     0.7120     3.0300 h5         1 9EY       0.079100
     54 H47          3.4770    -0.4410    -1.4200 ha         1 9EY       0.184000
     55 H55          1.5060     0.3300    -2.0350 hn         1 9EY       0.325500
     56 H56          0.4540     2.4620     1.3730 hn         1 9EY       0.380000
     57 H58         -3.8980     1.4920     3.1600 ha         1 9EY       0.108000
     58 H59         -6.2220     0.8070     3.5660 ha         1 9EY       0.112000
     59 H60         -6.4160    -0.9350    -0.3820 ha         1 9EY       0.178000
     60 H61         -8.1450    -0.1550     2.8490 hn         1 9EY       0.163000
     61 H62        -11.9360    -1.8450     2.1140 h1         1 9EY       0.049700
     62 H63        -11.4260    -1.3580     0.4840 h1         1 9EY       0.049700
     63 H64        -10.8680    -2.9040     1.1710 h1         1 9EY       0.049700
     64 H65         -3.8770    -1.1970    -4.2870 hc         1 9EY       0.069700
     65 H66         -2.7080    -1.6270    -2.9960 hc         1 9EY       0.069700
     66 H67         -2.9550    -0.7090    -0.9530 hn         1 9EY       0.205000
     67 Cl1          6.5330    -4.4370    -1.0350 cl         1 9EY      -0.173000
@<TRIPOS>BOND
     1     1    15 1   
     2     1    22 2   
     3     1    41 1   
     4     2     3 1   
     5     2     5 1   
     6     2    42 1   
     7     2    43 1   
     8     3     7 1   
     9     3    24 1   
    10     3    44 1   
    11     4    22 1   
    12     4    23 2   
    13     4    24 1   
    14     5     6 1   
    15     5    45 1   
    16     5    46 1   
    17     6    37 1   
    18     6    47 1   
    19     6    48 1   
    20     7    25 1   
    21     7    27 2   
    22     8    25 1   
    23     8    26 2   
    24     8    49 1   
    25     9    33 1   
    26     9    34 2   
    27     9    35 1   
    28    10    26 1   
    29    10    28 ar  
    30    10    32 ar  
    31    11    12 ar  
    32    11    16 ar  
    33    11    50 1   
    34    12    13 ar  
    35    12    51 1   
    36    13    14 ar  
    37    13    67 1   
    38    14    15 ar  
    39    14    52 1   
    40    15    16 ar  
    41    16    17 1   
    42    17    18 1   
    43    17    21 1   
    44    18    19 2   
    45    18    53 1   
    46    19    20 1   
    47    20    21 2   
    48    22    54 1   
    49    24    55 1   
    50    25    56 1   
    51    26    27 1   
    52    28    29 ar  
    53    28    57 1   
    54    29    30 ar  
    55    29    58 1   
    56    30    31 ar  
    57    30    33 1   
    58    31    32 ar  
    59    31    59 1   
    60    32    39 1   
    61    33    60 1   
    62    35    36 1   
    63    36    61 1   
    64    36    62 1   
    65    36    63 1   
    66    37    38 1   
    67    37    64 1   
    68    37    65 1   
    69    38    39 1   
    70    38    40 2   
    71    39    66 1   
@<TRIPOS>SUBSTRUCTURE
     1 9EY         1 TEMP              0 ****  ****    0 ROOT
