@<TRIPOS>MOLECULE
9EZ
   24    25     1     0     0
SMALL
abcg2


@<TRIPOS>ATOM
      1 C4          -1.8450     1.1650     0.0320 ca         1 9EZ      -0.090000
      2 C5          -1.1880    -0.0660    -0.0240 ca         1 9EZ      -0.114500
      3 C6          -1.9580    -1.2290    -0.0600 ca         1 9EZ      -0.090000
      4 C7           0.2770    -0.1360    -0.0390 cc         1 9EZ       0.334500
      5 C8           1.0940    -1.2840    -0.0780 cc         1 9EZ      -0.278000
      6 C9           2.3850    -0.7890    -0.0660 cd         1 9EZ       0.202000
      7 N1           2.2810     0.5550    -0.0170 na         1 9EZ       0.107800
      8 N2           1.0050     0.9660    -0.0020 nd         1 9EZ      -0.527800
      9 C3          -3.2290     1.2310     0.0470 ca         1 9EZ      -0.117500
     10 N3           3.5970    -1.4310    -0.1730 nv         1 9EZ      -1.045000
     11 C1          -3.3450    -1.1630    -0.0430 ca         1 9EZ      -0.117500
     12 C2          -3.9870     0.0660     0.0100 ca         1 9EZ      -0.107000
     13 H1          -1.2640     2.0790     0.0610 ha         1 9EZ       0.119500
     14 H2          -1.4790    -2.1990    -0.1040 ha         1 9EZ       0.119500
     15 H3           0.8080    -2.3230    -0.0990 ha         1 9EZ       0.144000
     16 H4           3.6860     1.6850    -1.0950 h1         1 9EZ       0.053367
     17 H5           2.9970     2.4540     0.3470 h1         1 9EZ       0.053367
     18 H6           4.2010     1.1820     0.5230 h1         1 9EZ       0.053367
     19 H7          -3.7190     2.1950     0.0900 ha         1 9EZ       0.110500
     20 H8           3.5300    -2.4230    -0.0100 hn         1 9EZ       0.446000
     21 H9           4.3420    -1.0400     0.3850 hn         1 9EZ       0.446000
     22 H10         -3.9240    -2.0770    -0.0720 ha         1 9EZ       0.110500
     23 H11         -5.0670     0.1180     0.0230 ha         1 9EZ       0.110000
     24 C10          3.3520     1.5160    -0.0710 c3         1 9EZ       0.076900
@<TRIPOS>BOND
     1     1     2 ar  
     2     1     9 ar  
     3     1    13 1   
     4     2     3 ar  
     5     2     4 1   
     6     3    11 ar  
     7     3    14 1   
     8     4     5 1   
     9     4     8 2   
    10     5     6 2   
    11     5    15 1   
    12     6     7 1   
    13     6    10 1   
    14     7     8 1   
    15     7    24 1   
    16     9    12 ar  
    17     9    19 1   
    18    10    20 1   
    19    10    21 1   
    20    11    12 ar  
    21    11    22 1   
    22    12    23 1   
    23    16    24 1   
    24    17    24 1   
    25    18    24 1   
@<TRIPOS>SUBSTRUCTURE
     1 9EZ         1 TEMP              0 ****  ****    0 ROOT
