@<TRIPOS>MOLECULE
9EZ
   24    25     1     0     0
SMALL
No Charge or Current Charge


@<TRIPOS>ATOM
      1 C4          -1.9000     1.1950     0.0240 ca         1 9EZ      -0.090000
      2 C5          -1.1910    -0.0310    -0.0090 ca         1 9EZ      -0.114500
      3 C6          -1.9390    -1.2330    -0.0360 ca         1 9EZ      -0.090000
      4 C7           0.2850    -0.0440    -0.0140 cc         1 9EZ       0.334500
      5 C8           1.0870    -1.2050    -0.0450 cc         1 9EZ      -0.278000
      6 C9           2.3720    -0.7960    -0.0400 cd         1 9EZ       0.202000
      7 N1           2.3150     0.6050    -0.0040 na         1 9EZ       0.107800
      8 N2           1.0030     1.0700     0.0110 nd         1 9EZ      -0.527800
      9 C3          -3.3050     1.2170     0.0290 ca         1 9EZ      -0.117500
     10 N3           3.5270    -1.5340    -0.0620 nv         1 9EZ      -1.045000
     11 C1          -3.3450    -1.2080    -0.0300 ca         1 9EZ      -0.117500
     12 C2          -4.0290     0.0160     0.0020 ca         1 9EZ      -0.107000
     13 H1          -1.3640     2.1420     0.0460 ha         1 9EZ       0.119500
     14 H2          -1.4440    -2.1990    -0.0610 ha         1 9EZ       0.119500
     15 H3           0.7390    -2.2280    -0.0690 ha         1 9EZ       0.144000
     16 H4           4.0480     1.4080    -0.8940 h1         1 9EZ       0.053367
     17 H5           3.0870     2.5730     0.0630 h1         1 9EZ       0.053367
     18 H6           4.0750     1.3360     0.8950 h1         1 9EZ       0.053367
     19 H7          -3.8320     2.1680     0.0550 ha         1 9EZ       0.110500
     20 H8           3.4920    -2.5490    -0.1460 hn         1 9EZ       0.446000
     21 H9           4.4400    -1.0830    -0.1190 hn         1 9EZ       0.446000
     22 H10         -3.9040    -2.1410    -0.0520 ha         1 9EZ       0.110500
     23 H11         -5.1170     0.0340     0.0060 ha         1 9EZ       0.110000
     24 C10          3.4510     1.5390     0.0160 c3         1 9EZ       0.076900
@<TRIPOS>BOND
     1     1     2 ar  
     2     1     9 ar  
     3     1    13 1   
     4     2     3 ar  
     5     2     4 1   
     6     3    11 ar  
     7     3    14 1   
     8     4     5 1   
     9     4     8 2   
    10     5     6 2   
    11     5    15 1   
    12     6     7 1   
    13     6    10 1   
    14     7     8 1   
    15     7    24 1   
    16     9    12 ar  
    17     9    19 1   
    18    10    20 1   
    19    10    21 1   
    20    11    12 ar  
    21    11    22 1   
    22    12    23 1   
    23    16    24 1   
    24    17    24 1   
    25    18    24 1   
@<TRIPOS>SUBSTRUCTURE
     1 9EZ         1 TEMP              0 ****  ****    0 ROOT
