@<TRIPOS>MOLECULE
9F1
   65    68     1     0     0
SMALL
abcg2


@<TRIPOS>ATOM
      1 N14         -0.3580    -0.3230    -0.9960 nc         1 9F1      -0.657000
      2 C13         -1.1130     0.2140     0.0100 cc         1 9F1       0.318500
      3 C18         -1.5440    -4.0930     1.1500 c3         1 9F1      -0.153400
      4 C17         -0.0230    -4.2960     1.0990 c3         1 9F1      -0.018500
      5 C16          1.5800    -2.8780    -0.2270 c2         1 9F1      -0.221200
      6 C19         -1.9390    -2.6320     1.1770 c          1 9F1       0.608100
      7 C12         -0.2810     0.7050     0.9710 cd         1 9F1       0.020000
      8 C27          0.5200    -3.6740    -0.1500 c2         1 9F1      -0.198200
      9 C33          6.3690     1.2920    -1.0040 ca         1 9F1       0.234500
     10 CL1         -0.6150     1.4410     2.4630 cl         1 9F1      -0.121000
     11 C2           2.0800    -0.6920    -1.3960 c3         1 9F1       0.097400
     12 C3           0.8900    -0.1690    -0.6440 cd         1 9F1       0.396800
     13 C4           2.0130    -2.2270    -1.5030 c3         1 9F1      -0.048200
     14 C5          -2.5780     0.2150     0.0100 ca         1 9F1      -0.113500
     15 C6          -3.2770     1.4160    -0.0520 ca         1 9F1      -0.054000
     16 C7          -4.6590     1.4780    -0.1330 ca         1 9F1      -0.147000
     17 C8          -5.3910     0.2910    -0.1550 ca         1 9F1       0.014000
     18 C9          -4.7070    -0.9210    -0.0590 ca         1 9F1      -0.209000
     19 C10         -3.3240    -0.9670     0.0310 ca         1 9F1       0.018000
     20 N11          0.9890     0.4530     0.5510 na         1 9F1      -0.279500
     21 N15         -2.7150    -2.2330     0.1340 ns         1 9F1      -0.152000
     22 N20         -6.7790     0.2140    -0.2530 ns         1 9F1      -0.140000
     23 O22         -8.9090     0.7360    -0.3890 os         1 9F1      -0.461100
     24 O23         -7.4190     2.4150    -0.3020 o          1 9F1      -0.518000
     25 O25         -1.5990    -1.8850     2.0740 o          1 9F1      -0.574100
     26 C26          0.3060    -5.7870     1.1600 c3         1 9F1      -0.086100
     27 C28          7.5820     1.5470    -0.4050 ca         1 9F1      -0.177000
     28 C29          7.6460     1.6630     0.9830 ca         1 9F1      -0.001300
     29 C30          6.4840     1.5110     1.7330 ca         1 9F1      -0.177000
     30 C31          5.2950     1.2460     1.0860 ca         1 9F1       0.234500
     31 C32          5.1920     1.1250    -0.2880 ca         1 9F1      -0.255600
     32 F36          4.1780     1.1130     1.8180 f          1 9F1      -0.167000
     33 N37          3.3150    -0.2840    -0.7560 ns         1 9F1      -0.516900
     34 C39          8.9510     1.9710     1.6520 c3         1 9F1      -0.057800
     35 H50         -2.0020    -4.6150     0.3050 hc         1 9F1       0.057700
     36 H51         -1.9400    -4.5560     2.0590 hc         1 9F1       0.057700
     37 H49          0.4250    -3.8040     1.9670 hc         1 9F1       0.070700
     38 H48          2.1370    -2.6430     0.6780 ha         1 9F1       0.167000
     39 H53         -9.9110     2.3040    -1.3360 h1         1 9F1       0.050367
     40 H54        -10.8890     1.0830    -0.5010 h1         1 9F1       0.050367
     41 H55        -10.0120     2.3040     0.4390 h1         1 9F1       0.050367
     42 H59         -0.0250    -3.9050    -1.0650 ha         1 9F1       0.170000
     43 H40          2.0670    -0.2830    -2.4090 h1         1 9F1       0.097700
     44 H41          2.9940    -2.5830    -1.8340 hc         1 9F1       0.062700
     45 H42          1.3040    -2.4750    -2.2930 hc         1 9F1       0.062700
     46 H43         -2.7180     2.3430    -0.0650 ha         1 9F1       0.125000
     47 H44         -5.1410     2.4390    -0.1950 ha         1 9F1       0.151000
     48 H45         -5.2660    -1.8500    -0.0370 ha         1 9F1       0.109000
     49 H46          1.8350     0.6680     1.0530 hn         1 9F1       0.369000
     50 H47         -3.0750    -2.9530    -0.4730 hn         1 9F1       0.148000
     51 H52         -7.1640    -0.7190    -0.2690 hn         1 9F1       0.164000
     52 H57         -0.0930    -6.3170     0.2920 hc         1 9F1       0.036700
     53 H58          1.3850    -5.9430     1.1780 hc         1 9F1       0.036700
     54 H56         -0.1160    -6.2460     2.0560 hc         1 9F1       0.036700
     55 H60          8.4700     1.6530    -1.0150 ha         1 9F1       0.141500
     56 H61          6.5030     1.5970     2.8120 ha         1 9F1       0.141500
     57 H62          3.8380    -0.9760    -0.2400 hn         1 9F1       0.324500
     58 H64          9.2090     3.0230     1.5180 hc         1 9F1       0.053700
     59 H63          8.9080     1.7750     2.7220 hc         1 9F1       0.053700
     60 H65          9.7620     1.3810     1.2270 hc         1 9F1       0.053700
     61 C35          3.8840     0.9130    -0.9870 c          1 9F1       0.623700
     62 C21         -7.6760     1.2340    -0.3130 c          1 9F1       0.646100
     63 F34          6.3090     1.1720    -2.3340 f          1 9F1      -0.167000
     64 C24         -9.9800     1.6750    -0.4500 c3         1 9F1       0.171900
     65 O38          3.3930     1.7710    -1.6950 o          1 9F1      -0.552100
@<TRIPOS>BOND
     1     1     2 1   
     2     1    12 2   
     3     2     7 2   
     4     2    14 1   
     5     3     4 1   
     6     3     6 1   
     7     3    35 1   
     8     3    36 1   
     9     4     8 1   
    10     4    26 1   
    11     4    37 1   
    12     5     8 2   
    13     5    13 1   
    14     5    38 1   
    15     6    21 1   
    16     6    25 2   
    17     7    10 1   
    18     7    20 1   
    19     8    42 1   
    20     9    27 ar  
    21     9    31 ar  
    22     9    63 1   
    23    11    12 1   
    24    11    13 1   
    25    11    33 1   
    26    11    43 1   
    27    12    20 1   
    28    13    44 1   
    29    13    45 1   
    30    14    15 ar  
    31    14    19 ar  
    32    15    16 ar  
    33    15    46 1   
    34    16    17 ar  
    35    16    47 1   
    36    17    18 ar  
    37    17    22 1   
    38    18    19 ar  
    39    18    48 1   
    40    19    21 1   
    41    20    49 1   
    42    21    50 1   
    43    22    51 1   
    44    22    62 1   
    45    23    62 1   
    46    23    64 1   
    47    24    62 2   
    48    26    52 1   
    49    26    53 1   
    50    26    54 1   
    51    27    28 ar  
    52    27    55 1   
    53    28    29 ar  
    54    28    34 1   
    55    29    30 ar  
    56    29    56 1   
    57    30    31 ar  
    58    30    32 1   
    59    31    61 1   
    60    33    57 1   
    61    33    61 1   
    62    34    58 1   
    63    34    59 1   
    64    34    60 1   
    65    39    64 1   
    66    40    64 1   
    67    41    64 1   
    68    61    65 2   
@<TRIPOS>SUBSTRUCTURE
     1 9F1         1 TEMP              0 ****  ****    0 ROOT
