@<TRIPOS>MOLECULE
9F1
   65    68     1     0     0
SMALL
No Charge or Current Charge


@<TRIPOS>ATOM
      1 N14         -0.4340    -0.3780    -1.0500 nc         1 9F1      -0.657000
      2 C13         -1.1850     0.3360    -0.1620 cc         1 9F1       0.318500
      3 C18         -1.4170    -3.9310     1.4840 c3         1 9F1      -0.153400
      4 C17          0.0820    -4.1940     1.1910 c3         1 9F1      -0.018500
      5 C16          1.6250    -2.8990    -0.3440 c2         1 9F1      -0.221200
      6 C19         -1.7980    -2.4420     1.4090 c          1 9F1       0.608100
      7 C12         -0.4240     1.1080     0.6740 cd         1 9F1       0.020000
      8 C27          0.5010    -3.5990    -0.1360 c2         1 9F1      -0.198200
      9 C33          6.3160     1.9220    -0.7910 ca         1 9F1       0.234500
     10 Cl1         -0.8940     2.1640     1.9680 cl         1 9F1      -0.121000
     11 C2           2.0430    -0.6440    -1.4640 c3         1 9F1       0.097400
     12 C3           0.8230    -0.0620    -0.7520 cd         1 9F1       0.396800
     13 C4           1.9600    -2.1810    -1.6390 c3         1 9F1      -0.048200
     14 C5          -2.6450     0.3040    -0.0850 ca         1 9F1      -0.113500
     15 C6          -3.3600     1.4940    -0.3220 ca         1 9F1      -0.054000
     16 C7          -4.7640     1.4960    -0.3540 ca         1 9F1      -0.147000
     17 C8          -5.4810     0.2980    -0.1620 ca         1 9F1       0.014000
     18 C9          -4.7670    -0.8890     0.0760 ca         1 9F1      -0.209000
     19 C10         -3.3610    -0.8980     0.1340 ca         1 9F1       0.018000
     20 N11          0.8760     0.8460     0.2980 na         1 9F1      -0.279500
     21 N15         -2.7290    -2.1320     0.4290 ns         1 9F1      -0.152000
     22 N20         -6.8990     0.2200    -0.1910 ns         1 9F1      -0.140000
     23 O22         -9.1050     0.5730    -0.3200 os         1 9F1      -0.461100
     24 O23         -7.7000     2.3690    -0.5930 o          1 9F1      -0.518000
     25 O25         -1.3730    -1.6220     2.2160 o          1 9F1      -0.574100
     26 C26          0.4160    -5.6990     1.2410 c3         1 9F1      -0.086100
     27 C28          7.5350     2.0970    -0.1170 ca         1 9F1      -0.177000
     28 C29          7.8010     1.4060     1.0730 ca         1 9F1      -0.001300
     29 C30          6.8290     0.5300     1.5780 ca         1 9F1      -0.177000
     30 C31          5.6090     0.3480     0.9080 ca         1 9F1       0.234500
     31 C32          5.3260     1.0410    -0.2960 ca         1 9F1      -0.255600
     32 F36          4.7090    -0.4840     1.4760 f          1 9F1      -0.167000
     33 N37          3.3180    -0.2850    -0.8110 ns         1 9F1      -0.516900
     34 C39          9.1220     1.5960     1.8000 c3         1 9F1      -0.057800
     35 H50         -2.0250    -4.5040     0.7730 hc         1 9F1       0.057700
     36 H51         -1.6360    -4.2850     2.4980 hc         1 9F1       0.057700
     37 H49          0.6610    -3.7120     1.9910 hc         1 9F1       0.070700
     38 H48          2.3470    -2.7560     0.4630 ha         1 9F1       0.167000
     39 H53        -10.2660     1.8760    -1.4890 h1         1 9F1       0.050367
     40 H54        -11.1840     0.7930    -0.4220 h1         1 9F1       0.050367
     41 H55        -10.3190     2.1840     0.2650 h1         1 9F1       0.050367
     42 H59         -0.2260    -3.7250    -0.9420 ha         1 9F1       0.170000
     43 H40          2.0530    -0.2100    -2.4730 h1         1 9F1       0.097700
     44 H41          2.9040    -2.5560    -2.0520 hc         1 9F1       0.062700
     45 H42          1.1950    -2.3990    -2.3940 hc         1 9F1       0.062700
     46 H43         -2.8220     2.4220    -0.5040 ha         1 9F1       0.125000
     47 H44         -5.2720     2.4360    -0.5430 ha         1 9F1       0.151000
     48 H45         -5.3120    -1.8160     0.2370 ha         1 9F1       0.109000
     49 H46          1.7170     1.2290     0.7060 hn         1 9F1       0.369000
     50 H47         -3.0530    -2.9160    -0.1220 hn         1 9F1       0.148000
     51 H52         -7.2650    -0.7100    -0.0380 hn         1 9F1       0.164000
     52 H57         -0.1330    -6.2470     0.4660 hc         1 9F1       0.036700
     53 H58          1.4890    -5.8600     1.0800 hc         1 9F1       0.036700
     54 H56          0.1510    -6.1240     2.2170 hc         1 9F1       0.036700
     55 H60          8.2770     2.7750    -0.5310 ha         1 9F1       0.141500
     56 H61          7.0130    -0.0130     2.5010 ha         1 9F1       0.141500
     57 H62          3.7400    -0.9510    -0.1740 hn         1 9F1       0.324500
     58 H64          9.5280     2.6020     1.6360 hc         1 9F1       0.053700
     59 H63          9.0070     1.4610     2.8820 hc         1 9F1       0.053700
     60 H65          9.8680     0.8730     1.4490 hc         1 9F1       0.053700
     61 C35          4.0240     0.8740    -1.0400 c          1 9F1       0.623700
     62 C21         -7.8780     1.1760    -0.3890 c          1 9F1       0.646100
     63 F34          6.1390     2.5990    -1.9470 f          1 9F1      -0.167000
     64 C24        -10.2720     1.3990    -0.5000 c3         1 9F1       0.171900
     65 O38          3.5710     1.7290    -1.7840 o          1 9F1      -0.552100
@<TRIPOS>BOND
     1     1     2 1   
     2     1    12 2   
     3     2     7 2   
     4     2    14 1   
     5     3     4 1   
     6     3     6 1   
     7     3    35 1   
     8     3    36 1   
     9     4     8 1   
    10     4    26 1   
    11     4    37 1   
    12     5     8 2   
    13     5    13 1   
    14     5    38 1   
    15     6    21 1   
    16     6    25 2   
    17     7    10 1   
    18     7    20 1   
    19     8    42 1   
    20     9    27 ar  
    21     9    31 ar  
    22     9    63 1   
    23    11    12 1   
    24    11    13 1   
    25    11    33 1   
    26    11    43 1   
    27    12    20 1   
    28    13    44 1   
    29    13    45 1   
    30    14    15 ar  
    31    14    19 ar  
    32    15    16 ar  
    33    15    46 1   
    34    16    17 ar  
    35    16    47 1   
    36    17    18 ar  
    37    17    22 1   
    38    18    19 ar  
    39    18    48 1   
    40    19    21 1   
    41    20    49 1   
    42    21    50 1   
    43    22    51 1   
    44    22    62 1   
    45    23    62 1   
    46    23    64 1   
    47    24    62 2   
    48    26    52 1   
    49    26    53 1   
    50    26    54 1   
    51    27    28 ar  
    52    27    55 1   
    53    28    29 ar  
    54    28    34 1   
    55    29    30 ar  
    56    29    56 1   
    57    30    31 ar  
    58    30    32 1   
    59    31    61 1   
    60    33    57 1   
    61    33    61 1   
    62    34    58 1   
    63    34    59 1   
    64    34    60 1   
    65    39    64 1   
    66    40    64 1   
    67    41    64 1   
    68    61    65 2   
@<TRIPOS>SUBSTRUCTURE
     1 9F1         1 TEMP              0 ****  ****    0 ROOT
