@<TRIPOS>MOLECULE
9F3
   42    44     1     0     0
SMALL
bcc


@<TRIPOS>ATOM
      1 C1           1.0080     0.3760     1.0390 c5         1 9F3       0.109100
      2 C2           1.7200     0.9080    -0.2190 c5         1 9F3       0.312600
      3 C3           2.0490    -0.5490     1.6600 c5         1 9F3       0.111100
      4 C4          -1.7970     1.2200     0.1960 c5         1 9F3       0.103100
      5 C5          -0.1330     0.2600    -1.5440 c6         1 9F3       0.124400
      6 C6           2.8290    -1.0500     0.4300 c5         1 9F3       0.115100
      7 O1           0.8580     1.2250    -1.2620 os         1 9F3      -0.366600
      8 C9           2.5020     2.1830     0.0820 c3         1 9F3       0.146400
      9 O7           3.1890     2.5760    -1.0770 oh         1 9F3      -0.564800
     10 O2           2.5740    -0.1350    -0.6250 os         1 9F3      -0.388600
     11 C10          2.4290    -2.4510     0.0210 c3         1 9F3       0.128400
     12 O8           3.1930    -2.8250    -1.1010 oh         1 9F3      -0.581800
     13 O4           2.8360     0.2010     2.5510 oh         1 9F3      -0.593800
     14 O           -0.1040    -0.4300     0.7260 os         1 9F3      -0.428600
     15 C           -0.9640     0.0270    -0.2990 c5         1 9F3       0.331600
     16 O3          -1.8710    -0.9890    -0.5340 os         1 9F3      -0.358600
     17 C8          -3.0610    -0.8150     0.2410 c5         1 9F3       0.115100
     18 C11         -4.2680    -0.8170    -0.6710 c3         1 9F3       0.131400
     19 O9          -4.3390    -2.0580    -1.3320 oh         1 9F3      -0.579800
     20 C7          -2.8980     0.5160     0.9940 c5         1 9F3       0.081100
     21 O6          -2.4680     0.3600     2.3210 oh         1 9F3      -0.572800
     22 O5          -2.3180     1.8780    -0.9280 oh         1 9F3      -0.576800
     23 H1           0.7290     1.1880     1.7220 h1         1 9F3       0.079700
     24 H2           1.5540    -1.3770     2.1820 h1         1 9F3       0.071700
     25 H3          -1.2270     1.9040     0.8350 h1         1 9F3       0.073700
     26 H4          -0.7310     0.6530    -2.3640 h1         1 9F3       0.085700
     27 H5           0.3070    -0.6900    -1.8690 h1         1 9F3       0.085700
     28 H6           3.9050    -1.0470     0.6490 h1         1 9F3       0.065700
     29 H7           1.7950     2.9520     0.4230 h1         1 9F3       0.034700
     30 H8           3.1850     1.9880     0.9140 h1         1 9F3       0.034700
     31 H9           3.8950     3.1720    -0.8150 ho         1 9F3       0.398000
     32 H10          2.6100    -3.1140     0.8770 h1         1 9F3       0.030200
     33 H11          1.3520    -2.4830    -0.1880 h1         1 9F3       0.030200
     34 H12          2.9090    -3.7000    -1.3770 ho         1 9F3       0.403000
     35 H13          3.5500    -0.3580     2.8760 ho         1 9F3       0.416000
     36 H14         -3.1460    -1.6470     0.9500 h1         1 9F3       0.075700
     37 H15         -5.1540    -0.6390    -0.0470 h1         1 9F3       0.026200
     38 H16         -4.1930     0.0210    -1.3740 h1         1 9F3       0.026200
     39 H17         -5.1020    -2.0410    -1.9160 ho         1 9F3       0.404000
     40 H18         -3.8260     1.1030     0.9540 h1         1 9F3       0.040700
     41 H19         -3.1800    -0.0470     2.8240 ho         1 9F3       0.410000
     42 H20         -2.8720     2.6040    -0.6240 ho         1 9F3       0.409000
@<TRIPOS>BOND
     1     1     2 1   
     2     1     3 1   
     3     1    14 1   
     4     1    23 1   
     5     2     7 1   
     6     2     8 1   
     7     2    10 1   
     8     3     6 1   
     9     3    13 1   
    10     3    24 1   
    11     4    15 1   
    12     4    20 1   
    13     4    22 1   
    14     4    25 1   
    15     5     7 1   
    16     5    15 1   
    17     5    26 1   
    18     5    27 1   
    19     6    10 1   
    20     6    11 1   
    21     6    28 1   
    22     8     9 1   
    23     8    29 1   
    24     8    30 1   
    25     9    31 1   
    26    11    12 1   
    27    11    32 1   
    28    11    33 1   
    29    12    34 1   
    30    13    35 1   
    31    14    15 1   
    32    15    16 1   
    33    16    17 1   
    34    17    18 1   
    35    17    20 1   
    36    17    36 1   
    37    18    19 1   
    38    18    37 1   
    39    18    38 1   
    40    19    39 1   
    41    20    21 1   
    42    20    40 1   
    43    21    41 1   
    44    22    42 1   
@<TRIPOS>SUBSTRUCTURE
     1 9F3         1 TEMP              0 ****  ****    0 ROOT
