@<TRIPOS>MOLECULE
9F3
   42    44     1     0     0
SMALL
No Charge or Current Charge


@<TRIPOS>ATOM
      1 C1           0.9940     0.3220     0.9790 c5         1 9F3       0.132300
      2 C2           1.8880     0.9130    -0.1980 c5         1 9F3       0.359000
      3 C3           2.0150    -0.5910     1.7220 c5         1 9F3       0.134300
      4 C4          -1.7260     1.3060    -0.0220 c5         1 9F3       0.126300
      5 C5           0.0150     0.2640    -1.7440 c6         1 9F3       0.147600
      6 C6           2.8570    -1.1450     0.5160 c5         1 9F3       0.138300
      7 O1           1.1380     1.1200    -1.4350 os         1 9F3      -0.413000
      8 C9           2.5470     2.2850     0.2080 c3         1 9F3       0.169600
      9 O7           3.3940     2.8500    -0.8240 oh         1 9F3      -0.687000
     10 O2           2.9480    -0.0500    -0.4420 os         1 9F3      -0.435000
     11 C10          2.2560    -2.4160    -0.1630 c3         1 9F3       0.151600
     12 O8           3.2070    -3.0330    -1.0500 oh         1 9F3      -0.704000
     13 O4           2.8100     0.1480     2.6690 oh         1 9F3      -0.716000
     14 O           -0.1070    -0.5350     0.5350 os         1 9F3      -0.475000
     15 C           -0.9090     0.0500    -0.5230 c5         1 9F3       0.378000
     16 O3          -1.9410    -0.8960    -0.8330 os         1 9F3      -0.405000
     17 C8          -2.9660    -0.8050     0.1960 c5         1 9F3       0.138300
     18 C11         -4.3660    -1.0170    -0.4460 c3         1 9F3       0.154600
     19 O9          -4.5590    -2.3840    -0.8540 oh         1 9F3      -0.702000
     20 C7          -2.7900     0.6040     0.8940 c5         1 9F3       0.104300
     21 O6          -2.3300     0.4860     2.2520 oh         1 9F3      -0.695000
     22 O5          -2.3610     2.0250    -1.1040 oh         1 9F3      -0.699000
     23 H1           0.6010     1.1050     1.6400 h1         1 9F3       0.079700
     24 H2           1.4900    -1.4060     2.2410 h1         1 9F3       0.071700
     25 H3          -1.0960     1.9940     0.5570 h1         1 9F3       0.073700
     26 H4          -0.5540     0.7060    -2.5740 h1         1 9F3       0.085700
     27 H5           0.3940    -0.7070    -2.0870 h1         1 9F3       0.085700
     28 H6           3.8710    -1.4030     0.8490 h1         1 9F3       0.065700
     29 H7           1.7400     2.9880     0.4540 h1         1 9F3       0.034700
     30 H8           3.1330     2.1430     1.1240 h1         1 9F3       0.034700
     31 H9           3.7700     3.6850    -0.4630 ho         1 9F3       0.497000
     32 H10          1.9710    -3.1260     0.6250 h1         1 9F3       0.030200
     33 H11          1.3430    -2.1540    -0.7110 h1         1 9F3       0.030200
     34 H12          2.7610    -3.8110    -1.4580 ho         1 9F3       0.502000
     35 H13          3.3180    -0.5070     3.2050 ho         1 9F3       0.515000
     36 H14         -2.7940    -1.6090     0.9240 h1         1 9F3       0.075700
     37 H15         -5.1320    -0.7400     0.2910 h1         1 9F3       0.026200
     38 H16         -4.4710    -0.3380    -1.3030 h1         1 9F3       0.026200
     39 H17         -5.4340    -2.4300    -1.3070 ho         1 9F3       0.503000
     40 H18         -3.7340     1.1670     0.8830 h1         1 9F3       0.040700
     41 H19         -3.0850     0.1620     2.7970 ho         1 9F3       0.509000
     42 H20         -2.7790     2.8310    -0.7190 ho         1 9F3       0.508000
@<TRIPOS>BOND
     1     1     2 1   
     2     1     3 1   
     3     1    14 1   
     4     1    23 1   
     5     2     7 1   
     6     2     8 1   
     7     2    10 1   
     8     3     6 1   
     9     3    13 1   
    10     3    24 1   
    11     4    15 1   
    12     4    20 1   
    13     4    22 1   
    14     4    25 1   
    15     5     7 1   
    16     5    15 1   
    17     5    26 1   
    18     5    27 1   
    19     6    10 1   
    20     6    11 1   
    21     6    28 1   
    22     8     9 1   
    23     8    29 1   
    24     8    30 1   
    25     9    31 1   
    26    11    12 1   
    27    11    32 1   
    28    11    33 1   
    29    12    34 1   
    30    13    35 1   
    31    14    15 1   
    32    15    16 1   
    33    16    17 1   
    34    17    18 1   
    35    17    20 1   
    36    17    36 1   
    37    18    19 1   
    38    18    37 1   
    39    18    38 1   
    40    19    39 1   
    41    20    21 1   
    42    20    40 1   
    43    21    41 1   
    44    22    42 1   
@<TRIPOS>SUBSTRUCTURE
     1 9F3         1 TEMP              0 ****  ****    0 ROOT
