@<TRIPOS>MOLECULE
9F4
   42    45     1     0     0
SMALL
No Charge or Current Charge


@<TRIPOS>ATOM
      1 F26         -8.4500    -0.2580     0.2430 f          1 9F4      -0.156000
      2 C23         -7.1020    -0.2050     0.1490 ca         1 9F4       0.055000
      3 C22         -6.3260     0.3960     1.1530 ca         1 9F4       0.084900
      4 N21         -4.9810     0.4470     1.0560 nb         1 9F4      -0.161000
      5 C24         -6.4290    -0.7500    -0.9560 ca         1 9F4       0.084900
      6 N25         -5.0830    -0.6950    -1.0470 nb         1 9F4      -0.161000
      7 C20         -4.4010    -0.1000    -0.0400 cp         1 9F4       0.187500
      8 C12         -2.8970    -0.0410    -0.1450 cp         1 9F4      -0.152500
      9 C11         -2.2070    -0.5890    -1.2610 ca         1 9F4      -0.062000
     10 C10         -0.8060    -0.5330    -1.3560 ca         1 9F4      -0.120500
     11 C13         -2.1030     0.5660     0.8680 ca         1 9F4      -0.062000
     12 C14         -0.7020     0.6200     0.7690 ca         1 9F4      -0.120500
     13 C9          -0.0370     0.0710    -0.3450 ca         1 9F4      -0.032300
     14 C8           1.4670     0.1130    -0.4780 cx         1 9F4      -0.042400
     15 C15          2.2960     1.2820     0.0250 cx         1 9F4      -0.227700
     16 C16          3.4640     1.7640    -0.8040 c          1 9F4       0.633100
     17 N18          4.3720     2.5370    -0.0940 ns         1 9F4      -0.381400
     18 O19          5.6680     2.8720    -0.6490 oh         1 9F4      -0.429100
     19 O17          3.5830     1.5260    -2.0000 o          1 9F4      -0.557100
     20 C7           2.3860    -0.0660     0.7150 cx         1 9F4      -0.031400
     21 C6           3.6220    -0.9210     0.6510 ca         1 9F4      -0.059300
     22 C1           4.7770    -0.5390     1.3620 ca         1 9F4      -0.091000
     23 C5           3.6360    -2.1180    -0.0930 ca         1 9F4      -0.091000
     24 C4           4.7960    -2.9110    -0.1400 ca         1 9F4      -0.106500
     25 C3           5.9480    -2.5170     0.5610 ca         1 9F4      -0.103000
     26 C2           5.9370    -1.3320     1.3140 ca         1 9F4      -0.106500
     27 H22         -6.7790     0.8380     2.0390 h4         1 9F4       0.042600
     28 H24         -6.9640    -1.2310    -1.7730 h4         1 9F4       0.042600
     29 H11         -2.7550    -1.0670    -2.0700 ha         1 9F4       0.135000
     30 H13         -2.5700     1.0040     1.7470 ha         1 9F4       0.135000
     31 H10         -0.3180    -0.9660    -2.2270 ha         1 9F4       0.115500
     32 H14         -0.1410     1.0940     1.5700 ha         1 9F4       0.115500
     33 H8           1.8000    -0.3410    -1.4090 hc         1 9F4       0.110700
     34 H15          1.7660     2.0700     0.5500 hc         1 9F4       0.089700
     35 H7           1.9080    -0.1430     1.6890 hc         1 9F4       0.088700
     36 H18          4.2880     2.5890     0.9190 hn         1 9F4       0.329500
     37 H1           4.7750     0.3730     1.9550 ha         1 9F4       0.110000
     38 H5           2.7490    -2.4400    -0.6320 ha         1 9F4       0.110000
     39 H2           6.8250    -1.0280     1.8630 ha         1 9F4       0.112500
     40 H4           4.8000    -3.8330    -0.7190 ha         1 9F4       0.112500
     41 H3           6.8450    -3.1310     0.5240 ha         1 9F4       0.112000
     42 H19          5.7350     3.8470    -0.5100 ho         1 9F4       0.447000
@<TRIPOS>BOND
     1     1     2 1   
     2     2     3 ar  
     3     2     5 ar  
     4     3     4 ar  
     5     3    27 1   
     6     4     7 ar  
     7     5     6 ar  
     8     5    28 1   
     9     6     7 ar  
    10     7     8 1   
    11     8     9 ar  
    12     8    11 ar  
    13     9    10 ar  
    14     9    29 1   
    15    10    13 ar  
    16    10    31 1   
    17    11    12 ar  
    18    11    30 1   
    19    12    13 ar  
    20    12    32 1   
    21    13    14 1   
    22    14    15 1   
    23    14    20 1   
    24    14    33 1   
    25    15    16 1   
    26    15    20 1   
    27    15    34 1   
    28    16    17 1   
    29    16    19 2   
    30    17    18 1   
    31    17    36 1   
    32    18    42 1   
    33    20    21 1   
    34    20    35 1   
    35    21    22 ar  
    36    21    23 ar  
    37    22    26 ar  
    38    22    37 1   
    39    23    24 ar  
    40    23    38 1   
    41    24    25 ar  
    42    24    40 1   
    43    25    26 ar  
    44    25    41 1   
    45    26    39 1   
@<TRIPOS>SUBSTRUCTURE
     1 9F4         1 TEMP              0 ****  ****    0 ROOT
