@<TRIPOS>MOLECULE
9F4
   42    45     1     0     0
SMALL
bcc


@<TRIPOS>ATOM
      1 F26         -8.2210    -0.1720     0.2200 f          1 9F4      -0.120900
      2 C23         -6.8920    -0.1260     0.1310 ca         1 9F4      -0.110700
      3 C22         -6.1330     0.4210     1.1450 ca         1 9F4       0.413200
      4 N21         -4.8150     0.4590     1.0520 nb         1 9F4      -0.687000
      5 C24         -6.2390    -0.6250    -0.9780 ca         1 9F4       0.413200
      6 N25         -4.9200    -0.5800    -1.0580 nb         1 9F4      -0.687000
      7 C20         -4.2490    -0.0420    -0.0420 cp         1 9F4       0.713500
      8 C12         -2.7770    -0.0030    -0.1350 cp         1 9F4      -0.152500
      9 C11         -2.1170    -0.4940    -1.2600 ca         1 9F4      -0.080000
     10 C10         -0.7350    -0.4580    -1.3390 ca         1 9F4      -0.138500
     11 C13         -2.0100     0.5250     0.9050 ca         1 9F4      -0.080000
     12 C14         -0.6300     0.5570     0.8230 ca         1 9F4      -0.138500
     13 C9           0.0340     0.0640    -0.3010 ca         1 9F4      -0.032300
     14 C8           1.5100     0.0680    -0.4210 cx         1 9F4      -0.042400
     15 C15          2.3350     1.1850     0.1650 cx         1 9F4      -0.227700
     16 C16          3.4970     1.6860    -0.6210 c          1 9F4       0.700100
     17 N18          3.9000     2.9120    -0.2230 ns         1 9F4      -0.448400
     18 O19          5.0810     3.4080    -0.6870 oh         1 9F4      -0.390100
     19 O17          4.0160     1.0700    -1.5330 o          1 9F4      -0.557100
     20 C7           2.3920    -0.2030     0.7540 cx         1 9F4      -0.031400
     21 C6           3.6080    -1.0560     0.6540 ca         1 9F4      -0.059300
     22 C1           4.7230    -0.7580     1.4350 ca         1 9F4      -0.109000
     23 C5           3.6430    -2.1780    -0.1660 ca         1 9F4      -0.109000
     24 C4           4.7730    -2.9850    -0.2120 ca         1 9F4      -0.124500
     25 C3           5.8830    -2.6770     0.5630 ca         1 9F4      -0.121000
     26 C2           5.8540    -1.5600     1.3890 ca         1 9F4      -0.124500
     27 H22         -6.5950     0.8300     2.0370 h4         1 9F4       0.042600
     28 H24         -6.7870    -1.0640    -1.8050 h4         1 9F4       0.042600
     29 H11         -2.6860    -0.9080    -2.0810 ha         1 9F4       0.153000
     30 H13         -2.4970     0.9160     1.7880 ha         1 9F4       0.153000
     31 H10         -0.2450    -0.8470    -2.2230 ha         1 9F4       0.133500
     32 H14         -0.0720     0.9750     1.6520 ha         1 9F4       0.133500
     33 H8           1.8780    -0.3040    -1.3720 hc         1 9F4       0.110700
     34 H15          1.8080     1.9250     0.7580 hc         1 9F4       0.089700
     35 H7           1.8790    -0.2770     1.7090 hc         1 9F4       0.088700
     36 H18          3.5980     3.3100     0.6550 hn         1 9F4       0.329500
     37 H1           4.7060     0.1120     2.0810 ha         1 9F4       0.128000
     38 H5           2.7820    -2.4260    -0.7740 ha         1 9F4       0.128000
     39 H2           6.7130    -1.3140     1.9990 ha         1 9F4       0.130500
     40 H4           4.7850    -3.8550    -0.8560 ha         1 9F4       0.130500
     41 H3           6.7640    -3.3030     0.5240 ha         1 9F4       0.130000
     42 H19          4.8520     4.0430    -1.3770 ho         1 9F4       0.408000
@<TRIPOS>BOND
     1     1     2 1   
     2     2     3 ar  
     3     2     5 ar  
     4     3     4 ar  
     5     3    27 1   
     6     4     7 ar  
     7     5     6 ar  
     8     5    28 1   
     9     6     7 ar  
    10     7     8 1   
    11     8     9 ar  
    12     8    11 ar  
    13     9    10 ar  
    14     9    29 1   
    15    10    13 ar  
    16    10    31 1   
    17    11    12 ar  
    18    11    30 1   
    19    12    13 ar  
    20    12    32 1   
    21    13    14 1   
    22    14    15 1   
    23    14    20 1   
    24    14    33 1   
    25    15    16 1   
    26    15    20 1   
    27    15    34 1   
    28    16    17 1   
    29    16    19 2   
    30    17    18 1   
    31    17    36 1   
    32    18    42 1   
    33    20    21 1   
    34    20    35 1   
    35    21    22 ar  
    36    21    23 ar  
    37    22    26 ar  
    38    22    37 1   
    39    23    24 ar  
    40    23    38 1   
    41    24    25 ar  
    42    24    40 1   
    43    25    26 ar  
    44    25    41 1   
    45    26    39 1   
@<TRIPOS>SUBSTRUCTURE
     1 9F4         1 TEMP              0 ****  ****    0 ROOT
