@<TRIPOS>MOLECULE
9F5
   29    30     1     0     0
SMALL
No Charge or Current Charge


@<TRIPOS>ATOM
      1 C10         -0.6210    -1.3940     0.1620 ca         1 9F5       0.076100
      2 C13         -2.7330     0.2380    -1.1210 ca         1 9F5      -0.160000
      3 C15         -4.5820     1.7160    -0.5540 ca         1 9F5      -0.158000
      4 C17         -3.7650     0.1110     1.0820 ca         1 9F5      -0.160000
      5 C02          3.5710     0.9010     0.6970 c          1 9F5       0.699000
      6 O03          4.6900     0.7250     0.2270 o          1 9F5      -0.704500
      7 C04          2.3650     0.9860    -0.3080 c3         1 9F5       0.040600
      8 O05          2.8000     1.2440    -1.6700 oh         1 9F5      -0.702000
      9 C06          1.5200    -0.2880    -0.2570 ca         1 9F5      -0.015300
     10 C07          2.0850    -1.5400    -0.5780 ca         1 9F5      -0.101000
     11 C08          1.3080    -2.7100    -0.5180 ca         1 9F5      -0.118000
     12 C09         -0.0440    -2.6360    -0.1450 ca         1 9F5      -0.147000
     13 O11         -1.9450    -1.3510     0.5370 os         1 9F5      -0.256200
     14 C12         -2.7970    -0.3340     0.1660 ca         1 9F5       0.155100
     15 C14         -3.6230     1.2650    -1.4790 ca         1 9F5      -0.086000
     16 C16         -4.6560     1.1380     0.7250 ca         1 9F5      -0.086000
     17 C18          0.1620    -0.2230     0.1160 ca         1 9F5      -0.112000
     18 H1          -2.0000    -0.1160    -1.8420 ha         1 9F5       0.128500
     19 H2          -5.2720     2.5100    -0.8320 ha         1 9F5       0.102000
     20 H3          -3.8200    -0.3400     2.0700 ha         1 9F5       0.128500
     21 H5           1.7450     1.8250     0.0340 h1         1 9F5       0.042700
     22 H6           3.7740     1.0730    -1.6600 ho         1 9F5       0.477000
     23 H7           3.1310    -1.6070    -0.8700 ha         1 9F5       0.124000
     24 H8           1.7540    -3.6720    -0.7620 ha         1 9F5       0.095000
     25 H9          -0.6460    -3.5410    -0.0970 ha         1 9F5       0.105000
     26 H10         -3.5730     1.7090    -2.4710 ha         1 9F5       0.103000
     27 H11         -5.4020     1.4840     1.4370 ha         1 9F5       0.103000
     28 H12         -0.2810     0.7350     0.3740 ha         1 9F5       0.132000
     29 O01          3.3530     1.0400     1.8930 o          1 9F5      -0.704500
@<TRIPOS>BOND
     1     1    12 ar  
     2     1    13 1   
     3     1    17 ar  
     4     2    14 ar  
     5     2    15 ar  
     6     2    18 1   
     7     3    15 ar  
     8     3    16 ar  
     9     3    19 1   
    10     4    14 ar  
    11     4    16 ar  
    12     4    20 1   
    13     5     6 1   
    14     5     7 1   
    15     5    29 1   
    16     7     8 1   
    17     7     9 1   
    18     7    21 1   
    19     8    22 1   
    20     9    10 ar  
    21     9    17 ar  
    22    10    11 ar  
    23    10    23 1   
    24    11    12 ar  
    25    11    24 1   
    26    12    25 1   
    27    13    14 1   
    28    15    26 1   
    29    16    27 1   
    30    17    28 1   
@<TRIPOS>SUBSTRUCTURE
     1 9F5         1 TEMP              0 ****  ****    0 ROOT
