@<TRIPOS>MOLECULE
9F5
   29    30     1     0     0
SMALL
bcc


@<TRIPOS>ATOM
      1 C10         -0.5220    -1.1500     0.2710 ca         1 9F5       0.076100
      2 C13         -2.6880     0.2020    -0.9610 ca         1 9F5      -0.178000
      3 C15         -4.7290     1.4360    -0.5790 ca         1 9F5      -0.176000
      4 C17         -3.6860     0.2380     1.2360 ca         1 9F5      -0.178000
      5 C02          3.4010     0.9320     0.8300 c          1 9F5       0.909600
      6 O03          4.6340     0.8160     0.6560 o          1 9F5      -0.809800
      7 C04          2.5680     0.9000    -0.4860 c3         1 9F5       0.017400
      8 O05          3.4330     0.8140    -1.5800 oh         1 9F5      -0.639800
      9 C06          1.5970    -0.2510    -0.4320 ca         1 9F5      -0.015300
     10 C07          1.9340    -1.5020    -0.9430 ca         1 9F5      -0.119000
     11 C08          1.0490    -2.5650    -0.8350 ca         1 9F5      -0.136000
     12 C09         -0.1900    -2.3980    -0.2310 ca         1 9F5      -0.165000
     13 O11         -1.7280    -1.0010     0.9110 os         1 9F5      -0.256200
     14 C12         -2.6760    -0.1820     0.3760 ca         1 9F5       0.155100
     15 C14         -3.7160     1.0120    -1.4270 ca         1 9F5      -0.104000
     16 C16         -4.7080     1.0420     0.7530 ca         1 9F5      -0.104000
     17 C18          0.3580    -0.0820     0.1770 ca         1 9F5      -0.130000
     18 H1          -1.9120    -0.1230    -1.6420 ha         1 9F5       0.146500
     19 H2          -5.5270     2.0640    -0.9510 ha         1 9F5       0.120000
     20 H3          -3.6690    -0.0670     2.2740 ha         1 9F5       0.146500
     21 H5           1.9920     1.8370    -0.5260 h1         1 9F5       0.042700
     22 H6           4.3080     0.7550    -1.1490 ho         1 9F5       0.438000
     23 H7           2.8900    -1.6490    -1.4270 ha         1 9F5       0.142000
     24 H8           1.3220    -3.5350    -1.2310 ha         1 9F5       0.113000
     25 H9          -0.8880    -3.2220    -0.1510 ha         1 9F5       0.123000
     26 H10         -3.7200     1.3080    -2.4680 ha         1 9F5       0.121000
     27 H11         -5.4900     1.3650     1.4290 ha         1 9F5       0.121000
     28 H12          0.0760     0.8870     0.5700 ha         1 9F5       0.150000
     29 O01          2.7860     1.0670     1.8940 o          1 9F5      -0.809800
@<TRIPOS>BOND
     1     1    12 ar  
     2     1    13 1   
     3     1    17 ar  
     4     2    14 ar  
     5     2    15 ar  
     6     2    18 1   
     7     3    15 ar  
     8     3    16 ar  
     9     3    19 1   
    10     4    14 ar  
    11     4    16 ar  
    12     4    20 1   
    13     5     6 1   
    14     5     7 1   
    15     5    29 1   
    16     7     8 1   
    17     7     9 1   
    18     7    21 1   
    19     8    22 1   
    20     9    10 ar  
    21     9    17 ar  
    22    10    11 ar  
    23    10    23 1   
    24    11    12 ar  
    25    11    24 1   
    26    12    25 1   
    27    13    14 1   
    28    15    26 1   
    29    16    27 1   
    30    17    28 1   
@<TRIPOS>SUBSTRUCTURE
     1 9F5         1 TEMP              0 ****  ****    0 ROOT
