@<TRIPOS>MOLECULE
9F6
   28    29     1     0     0
SMALL
No Charge or Current Charge


@<TRIPOS>ATOM
      1 O1          -3.6350    -1.8840    -0.4590 oh         1 9F6      -0.548100
      2 C2          -3.5320    -0.5470    -0.2380 ca         1 9F6       0.226100
      3 C8          -4.7000     0.2260    -0.2870 ca         1 9F6      -0.181000
      4 C10         -4.6480     1.6070    -0.0550 ca         1 9F6      -0.032000
      5 C9          -3.4170     2.2100     0.2350 ca         1 9F6      -0.178000
      6 C4          -2.2410     1.4430     0.2830 ca         1 9F6      -0.019000
      7 C1          -2.2760     0.0490     0.0320 ca         1 9F6      -0.293600
      8 C3          -1.0160    -0.7940     0.0690 c          1 9F6       0.606900
      9 O2          -1.1050    -2.0120     0.1780 o          1 9F6      -0.589100
     10 C6           0.3340    -0.1570    -0.0260 ce         1 9F6      -0.300200
     11 C7           1.5160    -0.8360     0.0720 cf         1 9F6      -0.064200
     12 C5           2.8980    -0.3200    -0.0210 ca         1 9F6      -0.133800
     13 C12          3.1790     1.0500    -0.2340 ca         1 9F6       0.361900
     14 N1           4.4340     1.5510    -0.3230 nb         1 9F6      -0.668000
     15 C14          5.4680     0.6880    -0.2000 ca         1 9F6       0.349900
     16 C13          5.2880    -0.6880     0.0130 ca         1 9F6      -0.166000
     17 C11          3.9860    -1.2050     0.1050 ca         1 9F6      -0.050000
     18 H1          -2.7340    -2.2540    -0.2670 ho         1 9F6       0.519000
     19 H2          -5.6540    -0.2490    -0.5030 ha         1 9F6       0.133000
     20 H3          -5.5570     2.2040    -0.0910 ha         1 9F6       0.116000
     21 H4          -3.3730     3.2800     0.4310 ha         1 9F6       0.120000
     22 H5          -1.3170     1.9530     0.5390 ha         1 9F6       0.110000
     23 H6           0.3570     0.9100    -0.2100 ha         1 9F6       0.188000
     24 H7           1.4590    -1.9150     0.2450 ha         1 9F6       0.196000
     25 H8           2.3780     1.7800    -0.3370 h4         1 9F6       0.020100
     26 H9           6.4690     1.1120    -0.2750 h4         1 9F6       0.023100
     27 H10          6.1520    -1.3400     0.1050 ha         1 9F6       0.129000
     28 H11          3.8300    -2.2690     0.2700 ha         1 9F6       0.124000
@<TRIPOS>BOND
     1     1     2 1   
     2     1    18 1   
     3     2     3 ar  
     4     2     7 ar  
     5     3     4 ar  
     6     3    19 1   
     7     4     5 ar  
     8     4    20 1   
     9     5     6 ar  
    10     5    21 1   
    11     6     7 ar  
    12     6    22 1   
    13     7     8 1   
    14     8     9 2   
    15     8    10 1   
    16    10    11 2   
    17    10    23 1   
    18    11    12 1   
    19    11    24 1   
    20    12    13 ar  
    21    12    17 ar  
    22    13    14 ar  
    23    13    25 1   
    24    14    15 ar  
    25    15    16 ar  
    26    15    26 1   
    27    16    17 ar  
    28    16    27 1   
    29    17    28 1   
@<TRIPOS>SUBSTRUCTURE
     1 9F6         1 TEMP              0 ****  ****    0 ROOT
