@<TRIPOS>MOLECULE
9F6
   28    29     1     0     0
SMALL
bcc


@<TRIPOS>ATOM
      1 O1          -3.5670    -1.9050    -0.1330 oh         1 9F6      -0.509100
      2 C2          -3.4580    -0.5820    -0.0820 ca         1 9F6       0.226100
      3 C8          -4.6360     0.1700    -0.0720 ca         1 9F6      -0.199000
      4 C10         -4.5820     1.5460    -0.0150 ca         1 9F6      -0.050000
      5 C9          -3.3560     2.2120     0.0320 ca         1 9F6      -0.196000
      6 C4          -2.1910     1.4780     0.0190 ca         1 9F6      -0.037000
      7 C1          -2.2050     0.0750    -0.0400 ca         1 9F6      -0.293600
      8 C3          -0.9770    -0.7320    -0.0580 c          1 9F6       0.606900
      9 O2          -1.0520    -1.9660    -0.0840 o          1 9F6      -0.589100
     10 C6           0.3380    -0.0770    -0.0490 ce         1 9F6      -0.250200
     11 C7           1.4630    -0.8050    -0.0380 cf         1 9F6      -0.014200
     12 C5           2.8280    -0.2980    -0.0320 ca         1 9F6      -0.199100
     13 C12          3.1470     1.0650    -0.0420 ca         1 9F6       0.427200
     14 N1           4.3830     1.5310    -0.0370 nb         1 9F6      -0.668000
     15 C14          5.3850     0.6540    -0.0220 ca         1 9F6       0.415200
     16 C13          5.1910    -0.7180    -0.0110 ca         1 9F6      -0.249300
     17 C11          3.8930    -1.1980    -0.0160 ca         1 9F6      -0.068000
     18 H1          -2.6470    -2.2680    -0.1240 ho         1 9F6       0.480000
     19 H2          -5.5880    -0.3460    -0.1080 ha         1 9F6       0.151000
     20 H3          -5.5040     2.1140    -0.0070 ha         1 9F6       0.134000
     21 H4          -3.3190     3.2910     0.0780 ha         1 9F6       0.138000
     22 H5          -1.2530     2.0130     0.0590 ha         1 9F6       0.128000
     23 H6           0.3840     1.0020    -0.0560 ha         1 9F6       0.138000
     24 H7           1.3770    -1.8870    -0.0320 ha         1 9F6       0.146000
     25 H8           2.3610     1.8120    -0.0540 h4         1 9F6       0.020100
     26 H9           6.3880     1.0660    -0.0180 h4         1 9F6       0.023100
     27 H10          6.0370    -1.3910     0.0020 ha         1 9F6       0.147000
     28 H11          3.7040    -2.2640    -0.0080 ha         1 9F6       0.142000
@<TRIPOS>BOND
     1     1     2 1   
     2     1    18 1   
     3     2     3 ar  
     4     2     7 ar  
     5     3     4 ar  
     6     3    19 1   
     7     4     5 ar  
     8     4    20 1   
     9     5     6 ar  
    10     5    21 1   
    11     6     7 ar  
    12     6    22 1   
    13     7     8 1   
    14     8     9 2   
    15     8    10 1   
    16    10    11 2   
    17    10    23 1   
    18    11    12 1   
    19    11    24 1   
    20    12    13 ar  
    21    12    17 ar  
    22    13    14 ar  
    23    13    25 1   
    24    14    15 ar  
    25    15    16 ar  
    26    15    26 1   
    27    16    17 ar  
    28    16    27 1   
    29    17    28 1   
@<TRIPOS>SUBSTRUCTURE
     1 9F6         1 TEMP              0 ****  ****    0 ROOT
