@<TRIPOS>MOLECULE
9F7
   73    77     1     0     0
SMALL
abcg2


@<TRIPOS>ATOM
      1 C13         46.5340   -20.7880    31.3060 ca         1 9F7      -0.137000
      2 C18         48.9660   -22.0180    32.6480 c          1 9F7       0.642100
      3 C16         44.4090   -22.5580    30.9260 ca         1 9F7       0.015000
      4 C15         45.5710   -22.9760    31.5580 ca         1 9F7      -0.177000
      5 C21         51.0760   -22.3680    33.6570 c3         1 9F7       0.171900
      6 C22         41.6880   -24.8270    29.5690 c3         1 9F7      -0.130700
      7 C23         42.9300   -23.9400    29.5250 c          1 9F7       0.609100
      8 C11         44.2710   -21.2260    30.4910 ca         1 9F7      -0.110500
      9 C12         45.3640   -20.3760    30.6850 ca         1 9F7      -0.071000
     10 C33         37.3560   -14.0530    26.1200 ca         1 9F7      -0.090000
     11 C1          39.4690   -20.9260    29.4120 c3         1 9F7       0.090400
     12 C2          39.1700   -22.0250    28.3660 c3         1 9F7      -0.079400
     13 C3          40.2170   -23.1370    28.2740 c3         1 9F7      -0.074400
     14 C4          40.4150   -23.9460    29.5580 c3         1 9F7      -0.066400
     15 N5          38.6280   -19.7740    29.1260 ns         1 9F7      -0.516900
     16 C6          40.9270   -20.5770    29.4470 cc         1 9F7       0.381800
     17 N7          41.5680   -19.8060    28.5280 na         1 9F7      -0.296500
     18 C8          42.9190   -19.8900    28.7750 cc         1 9F7      -0.180000
     19 C9          43.0480   -20.7320    29.8550 cd         1 9F7       0.298500
     20 N10         41.7910   -21.1300    30.2700 nd         1 9F7      -0.669000
     21 C14         46.6390   -22.1010    31.7680 ca         1 9F7       0.001000
     22 N17         47.7570   -22.6100    32.4440 ns         1 9F7      -0.139000
     23 O19         49.3120   -20.9190    32.2590 o          1 9F7      -0.520000
     24 O20         49.7520   -22.8480    33.3650 os         1 9F7      -0.467100
     25 N24         43.3800   -23.5250    30.7360 ns         1 9F7      -0.160000
     26 O25         43.4790   -23.6130    28.4750 o          1 9F7      -0.596100
     27 C26         41.7310   -25.8780    28.4530 c3         1 9F7      -0.067400
     28 C28         38.3800   -18.7990    30.0270 c          1 9F7       0.591300
     29 C29         37.6980   -17.5810    29.5230 ce         1 9F7      -0.228200
     30 C30         37.8980   -17.0860    28.2980 cf         1 9F7      -0.142200
     31 C31         37.3140   -15.8560    27.7630 ca         1 9F7      -0.018800
     32 C32         37.9140   -15.1910    26.6840 ca         1 9F7      -0.000200
     33 O34         38.7100   -18.8860    31.2130 o          1 9F7      -0.567100
     34 C35         36.1690   -13.5440    26.6230 ca         1 9F7      -0.087000
     35 C36         35.5700   -14.1900    27.6980 ca         1 9F7       0.133000
     36 C37         36.1230   -15.3250    28.2670 ca         1 9F7      -0.085000
     37 N38         39.1400   -15.6810    26.1440 na         1 9F7      -0.012500
     38 C39         39.4160   -16.1260    24.9060 cc         1 9F7       0.400400
     39 N40         40.6820   -16.4750    24.8570 nd         1 9F7      -0.382000
     40 N41         41.1800   -16.2340    26.0970 nd         1 9F7      -0.049000
     41 N42         40.2750   -15.7580    26.8750 nc         1 9F7      -0.180800
     42 CL43        34.0740   -13.5620    28.3410 cl         1 9F7      -0.180000
     43 H55         47.3460   -20.0940    31.4480 ha         1 9F7       0.150000
     44 H56         45.6480   -24.0080    31.8770 ha         1 9F7       0.116000
     45 H59         51.5440   -23.1550    34.2420 h1         1 9F7       0.051367
     46 H60         51.6320   -22.2000    32.7350 h1         1 9F7       0.051367
     47 H58         51.0280   -21.4450    34.2330 h1         1 9F7       0.051367
     48 H61         41.6950   -25.3550    30.5280 hc         1 9F7       0.048700
     49 H54         45.2810   -19.3460    30.3630 ha         1 9F7       0.120000
     50 H65         40.6970   -27.6510    27.7570 hc         1 9F7       0.031700
     51 H66         40.5400   -27.3700    29.4930 hc         1 9F7       0.031700
     52 H67         39.6150   -26.3940    28.3500 hc         1 9F7       0.031700
     53 H70         37.8560   -13.5600    25.2970 ha         1 9F7       0.137000
     54 H44         39.2220   -21.2900    30.4080 h1         1 9F7       0.104700
     55 H45         39.1020   -21.5440    27.3850 hc         1 9F7       0.041200
     56 H46         38.1820   -22.4370    28.5890 hc         1 9F7       0.041200
     57 H48         39.9220   -23.8050    27.4620 hc         1 9F7       0.057200
     58 H47         41.1680   -22.6970    27.9730 hc         1 9F7       0.057200
     59 H50         40.4760   -23.2730    30.4120 hc         1 9F7       0.051700
     60 H49         39.5470   -24.5880    29.7250 hc         1 9F7       0.051700
     61 H51         38.2870   -19.6650    28.1840 hn         1 9F7       0.309500
     62 H52         41.1370   -19.2730    27.7870 hn         1 9F7       0.352000
     63 H53         43.6430   -19.3740    28.1690 h4         1 9F7       0.167000
     64 H57         47.6670   -23.5440    32.8170 hn         1 9F7       0.165000
     65 H62         42.8950   -23.8540    31.5570 hn         1 9F7       0.156000
     66 H63         42.6810   -26.4160    28.5260 hc         1 9F7       0.053200
     67 H64         41.7380   -25.3800    27.4820 hc         1 9F7       0.053200
     68 H68         37.1100   -17.0540    30.2650 ha         1 9F7       0.209000
     69 H69         38.5700   -17.6100    27.6300 ha         1 9F7       0.175000
     70 H71         35.7200   -12.6610    26.1900 ha         1 9F7       0.144000
     71 H72         35.6140   -15.8180    29.0820 ha         1 9F7       0.144000
     72 H73         38.6940   -16.1830    24.1100 h5         1 9F7       0.079100
     73 C27         40.5790   -26.8770    28.5180 c3         1 9F7      -0.090100
@<TRIPOS>BOND
     1     1     9 ar  
     2     1    21 ar  
     3     1    43 1   
     4     2    22 1   
     5     2    23 2   
     6     2    24 1   
     7     3     4 ar  
     8     3     8 ar  
     9     3    25 1   
    10     4    21 ar  
    11     4    44 1   
    12     5    24 1   
    13     5    45 1   
    14     5    46 1   
    15     5    47 1   
    16     6     7 1   
    17     6    14 1   
    18     6    27 1   
    19     6    48 1   
    20     7    25 1   
    21     7    26 2   
    22     8     9 ar  
    23     8    19 1   
    24     9    49 1   
    25    10    32 ar  
    26    10    34 ar  
    27    10    53 1   
    28    11    12 1   
    29    11    15 1   
    30    11    16 1   
    31    11    54 1   
    32    12    13 1   
    33    12    55 1   
    34    12    56 1   
    35    13    14 1   
    36    13    57 1   
    37    13    58 1   
    38    14    59 1   
    39    14    60 1   
    40    15    28 1   
    41    15    61 1   
    42    16    17 1   
    43    16    20 2   
    44    17    18 1   
    45    17    62 1   
    46    18    19 2   
    47    18    63 1   
    48    19    20 1   
    49    21    22 1   
    50    22    64 1   
    51    25    65 1   
    52    27    66 1   
    53    27    67 1   
    54    27    73 1   
    55    28    29 1   
    56    28    33 2   
    57    29    30 2   
    58    29    68 1   
    59    30    31 1   
    60    30    69 1   
    61    31    32 ar  
    62    31    36 ar  
    63    32    37 1   
    64    34    35 ar  
    65    34    70 1   
    66    35    36 ar  
    67    35    42 1   
    68    36    71 1   
    69    37    38 1   
    70    37    41 1   
    71    38    39 2   
    72    38    72 1   
    73    39    40 1   
    74    40    41 2   
    75    50    73 1   
    76    51    73 1   
    77    52    73 1   
@<TRIPOS>SUBSTRUCTURE
     1 9F7         1 TEMP              0 ****  ****    0 ROOT
