@<TRIPOS>MOLECULE
9F7
   73    77     1     0     0
SMALL
No Charge or Current Charge


@<TRIPOS>ATOM
      1 C13         46.9160   -21.1150    31.6620 ca         1 9F7      -0.137000
      2 C18         49.1020   -22.5810    33.3580 c          1 9F7       0.642100
      3 C16         44.6720   -22.7000    31.0460 ca         1 9F7       0.015000
      4 C15         45.7340   -23.2230    31.8060 ca         1 9F7      -0.177000
      5 C21         51.0200   -23.2960    34.6240 c3         1 9F7       0.171900
      6 C22         41.7950   -24.6580    29.3740 c3         1 9F7      -0.130700
      7 C23         43.1350   -23.8670    29.4190 c          1 9F7       0.609100
      8 C11         44.7090   -21.3400    30.6140 ca         1 9F7      -0.110500
      9 C12         45.8520   -20.5730    30.9210 ca         1 9F7      -0.071000
     10 C33         36.1790   -14.2240    25.8890 ca         1 9F7      -0.090000
     11 C1          40.0230   -20.5280    29.0980 c3         1 9F7       0.090400
     12 C2          39.6900   -21.5450    27.9620 c3         1 9F7      -0.079400
     13 C3          40.5730   -22.8240    27.8950 c3         1 9F7      -0.074400
     14 C4          40.5660   -23.7090    29.1770 c3         1 9F7      -0.066400
     15 N5          39.2840   -19.2720    28.8710 ns         1 9F7      -0.516900
     16 C6          41.5150   -20.3170    29.3330 cc         1 9F7       0.381800
     17 N7          42.2780   -19.3010    28.8100 na         1 9F7      -0.296500
     18 C8          43.5850   -19.4950    29.2270 cc         1 9F7      -0.180000
     19 C9          43.5670   -20.6750    29.9320 cd         1 9F7       0.298500
     20 N10         42.2680   -21.1070    30.0730 nd         1 9F7      -0.669000
     21 C14         46.8600   -22.4450    32.1220 ca         1 9F7       0.001000
     22 N17         47.8930   -23.0560    32.8830 ns         1 9F7      -0.139000
     23 O19         49.5520   -21.4530    33.2060 o          1 9F7      -0.520000
     24 O20         49.7340   -23.5840    34.0420 os         1 9F7      -0.467100
     25 N24         43.6300   -23.5940    30.6860 ns         1 9F7      -0.160000
     26 O25         43.7310   -23.5240    28.4000 o          1 9F7      -0.596100
     27 C26         41.8690   -25.8360    28.3610 c3         1 9F7      -0.067400
     28 C28         38.9510   -18.3750    29.8610 c          1 9F7       0.591300
     29 C29         38.1920   -17.1670    29.4290 ce         1 9F7      -0.228200
     30 C30         37.7890   -16.8490    28.1570 cf         1 9F7      -0.142200
     31 C31         37.0300   -15.6620    27.6850 ca         1 9F7      -0.018800
     32 C32         36.9220   -15.3500    26.3010 ca         1 9F7      -0.000200
     33 O34         39.2640   -18.5560    31.0270 o          1 9F7      -0.567100
     34 C35         35.5440   -13.4030    26.8330 ca         1 9F7      -0.087000
     35 C36         35.6470   -13.7040    28.1960 ca         1 9F7       0.133000
     36 C37         36.3820   -14.8230    28.6200 ca         1 9F7      -0.085000
     37 N38         37.5430   -16.1240    25.3200 na         1 9F7      -0.012500
     38 C39         36.8930   -16.8470    24.3630 cc         1 9F7       0.400400
     39 N40         37.8450   -17.3360    23.5870 nd         1 9F7      -0.382000
     40 N41         39.0480   -16.8670    24.0900 nd         1 9F7      -0.049000
     41 N42         38.8790   -16.1020    25.1380 nc         1 9F7      -0.180800
     42 Cl43        34.8480   -12.6800    29.3830 cl         1 9F7      -0.180000
     43 H55         47.7670   -20.4780    31.8780 ha         1 9F7       0.150000
     44 H56         45.6940   -24.2610    32.1320 ha         1 9F7       0.116000
     45 H59         51.4120   -24.1820    35.1400 h1         1 9F7       0.051367
     46 H60         51.7440   -23.0040    33.8520 h1         1 9F7       0.051367
     47 H58         50.9450   -22.4820    35.3570 h1         1 9F7       0.051367
     48 H61         41.6530   -25.0830    30.3760 hc         1 9F7       0.048700
     49 H54         45.9130   -19.5320    30.6130 ha         1 9F7       0.120000
     50 H65         40.8680   -27.6830    27.7780 hc         1 9F7       0.031700
     51 H66         40.5750   -27.2130    29.4650 hc         1 9F7       0.031700
     52 H67         39.7500   -26.3570    28.1390 hc         1 9F7       0.031700
     53 H70         36.1000   -13.9780    24.8310 ha         1 9F7       0.137000
     54 H44         39.6360   -20.9600    30.0300 h1         1 9F7       0.104700
     55 H45         39.7860   -21.0310    26.9970 hc         1 9F7       0.041200
     56 H46         38.6370   -21.8410    28.0490 hc         1 9F7       0.041200
     57 H48         40.2440   -23.4370    27.0470 hc         1 9F7       0.057200
     58 H47         41.5890   -22.5050    27.6460 hc         1 9F7       0.057200
     59 H50         40.5040   -23.0730    30.0660 hc         1 9F7       0.051700
     60 H49         39.6370   -24.2920    29.1950 hc         1 9F7       0.051700
     61 H51         38.9760   -19.0560    27.9320 hn         1 9F7       0.309500
     62 H52         41.9270   -18.5500    28.2280 hn         1 9F7       0.352000
     63 H53         44.4010   -18.8350    28.9620 h4         1 9F7       0.167000
     64 H57         47.7140   -24.0210    33.1250 hn         1 9F7       0.165000
     65 H62         43.1100   -23.9880    31.4590 hn         1 9F7       0.156000
     66 H63         42.7960   -26.3940    28.5410 hc         1 9F7       0.053200
     67 H64         41.9370   -25.4430    27.3390 hc         1 9F7       0.053200
     68 H68         37.9700   -16.4900    30.2490 ha         1 9F7       0.209000
     69 H69         38.0390   -17.5550    27.3670 ha         1 9F7       0.175000
     70 H71         34.9750   -12.5350    26.5100 ha         1 9F7       0.144000
     71 H72         36.4260   -15.0340    29.6830 ha         1 9F7       0.144000
     72 H73         35.8200   -16.9720    24.2930 h5         1 9F7       0.079100
     73 C27         40.6910   -26.8300    28.4440 c3         1 9F7      -0.090100
@<TRIPOS>BOND
     1     1     9 ar  
     2     1    21 ar  
     3     1    43 1   
     4     2    22 1   
     5     2    23 2   
     6     2    24 1   
     7     3     4 ar  
     8     3     8 ar  
     9     3    25 1   
    10     4    21 ar  
    11     4    44 1   
    12     5    24 1   
    13     5    45 1   
    14     5    46 1   
    15     5    47 1   
    16     6     7 1   
    17     6    14 1   
    18     6    27 1   
    19     6    48 1   
    20     7    25 1   
    21     7    26 2   
    22     8     9 ar  
    23     8    19 1   
    24     9    49 1   
    25    10    32 ar  
    26    10    34 ar  
    27    10    53 1   
    28    11    12 1   
    29    11    15 1   
    30    11    16 1   
    31    11    54 1   
    32    12    13 1   
    33    12    55 1   
    34    12    56 1   
    35    13    14 1   
    36    13    57 1   
    37    13    58 1   
    38    14    59 1   
    39    14    60 1   
    40    15    28 1   
    41    15    61 1   
    42    16    17 1   
    43    16    20 2   
    44    17    18 1   
    45    17    62 1   
    46    18    19 2   
    47    18    63 1   
    48    19    20 1   
    49    21    22 1   
    50    22    64 1   
    51    25    65 1   
    52    27    66 1   
    53    27    67 1   
    54    27    73 1   
    55    28    29 1   
    56    28    33 2   
    57    29    30 2   
    58    29    68 1   
    59    30    31 1   
    60    30    69 1   
    61    31    32 ar  
    62    31    36 ar  
    63    32    37 1   
    64    34    35 ar  
    65    34    70 1   
    66    35    36 ar  
    67    35    42 1   
    68    36    71 1   
    69    37    38 1   
    70    37    41 1   
    71    38    39 2   
    72    38    72 1   
    73    39    40 1   
    74    40    41 2   
    75    50    73 1   
    76    51    73 1   
    77    52    73 1   
@<TRIPOS>SUBSTRUCTURE
     1 9F7         1 TEMP              0 ****  ****    0 ROOT
