@<TRIPOS>MOLECULE
9F8
   27    28     1     0     0
SMALL
No Charge or Current Charge


@<TRIPOS>ATOM
      1 C10          1.3960    -0.4030    -0.6780 c3         1 9F8       0.084600
      2 C15         -3.0070    -2.6860     0.4230 c3         1 9F8      -0.000900
      3 C01         -0.6100    -1.9300    -0.1330 cc         1 9F8      -0.142100
      4 C02         -1.9490    -1.6570     0.1240 cd         1 9F8      -0.179400
      5 C03         -2.1710    -0.2300     0.0610 ca         1 9F8      -0.100800
      6 C04         -0.9620     0.3390    -0.2320 ca         1 9F8      -0.043200
      7 C05         -0.8240     1.7310    -0.3610 ca         1 9F8      -0.104000
      8 C06         -1.9740     2.5300    -0.1810 ca         1 9F8      -0.118000
      9 C07         -3.2230     1.9330     0.1200 ca         1 9F8      -0.155000
     10 C08         -3.3320     0.5320     0.2460 ca         1 9F8      -0.076000
     11 N09         -0.0160    -0.6720    -0.3530 na         1 9F8      -0.066700
     12 C11          2.2470    -0.0510     0.5600 c3         1 9F8      -0.235400
     13 C12          3.6880     0.1990     0.1130 c          1 9F8       0.722000
     14 O13          4.4460    -0.7570     0.0570 o          1 9F8      -0.733000
     15 O14          3.9960     1.3310    -0.2230 o          1 9F8      -0.733000
     16 H1           1.8130    -1.2960    -1.1620 h1         1 9F8       0.061200
     17 H2           1.4450     0.4160    -1.4070 h1         1 9F8       0.061200
     18 H3          -3.4520    -2.5150     1.4110 hc         1 9F8       0.024033
     19 H4          -3.8130    -2.6460    -0.3200 hc         1 9F8       0.024033
     20 H5          -2.5920    -3.7010     0.4130 hc         1 9F8       0.024033
     21 H6          -0.0590    -2.8630    -0.1750 h4         1 9F8       0.208000
     22 H7           0.1360     2.1880    -0.5900 ha         1 9F8       0.126000
     23 H8          -1.9010     3.6110    -0.2740 ha         1 9F8       0.097000
     24 H9          -4.1020     2.5580     0.2570 ha         1 9F8       0.092000
     25 H10         -4.2840     0.0620     0.4790 ha         1 9F8       0.097000
     26 H11          1.8090     0.8600     0.9850 hc         1 9F8       0.032700
     27 H12          2.1920    -0.9230     1.2230 hc         1 9F8       0.032700
@<TRIPOS>BOND
     1     1    11 1   
     2     1    12 1   
     3     1    16 1   
     4     1    17 1   
     5     2     4 1   
     6     2    18 1   
     7     2    19 1   
     8     2    20 1   
     9     3     4 2   
    10     3    11 1   
    11     3    21 1   
    12     4     5 1   
    13     5     6 ar  
    14     5    10 ar  
    15     6     7 ar  
    16     6    11 1   
    17     7     8 ar  
    18     7    22 1   
    19     8     9 ar  
    20     8    23 1   
    21     9    10 ar  
    22     9    24 1   
    23    10    25 1   
    24    12    13 1   
    25    12    26 1   
    26    12    27 1   
    27    13    14 1   
    28    13    15 1   
@<TRIPOS>SUBSTRUCTURE
     1 9F8         1 TEMP              0 ****  ****    0 ROOT
