@<TRIPOS>MOLECULE
9F8
   27    28     1     0     0
SMALL
bcc


@<TRIPOS>ATOM
      1 C10          1.3650    -0.3800    -0.8000 c3         1 9F8       0.055300
      2 C15         -2.9440    -2.7190     0.3380 c3         1 9F8      -0.000900
      3 C01         -0.6420    -1.8020    -0.3180 cc         1 9F8      -0.092100
      4 C02         -1.9500    -1.6470     0.0440 cd         1 9F8      -0.179400
      5 C03         -2.1800    -0.2340     0.0730 ca         1 9F8      -0.100800
      6 C04         -0.9630     0.3920    -0.2830 ca         1 9F8      -0.043200
      7 C05         -0.8390     1.7810    -0.3430 ca         1 9F8      -0.122000
      8 C06         -1.9580     2.5370    -0.0460 ca         1 9F8      -0.136000
      9 C07         -3.1760     1.9330     0.3070 ca         1 9F8      -0.173000
     10 C08         -3.2960     0.5570     0.3670 ca         1 9F8      -0.094000
     11 N09         -0.0440    -0.5870    -0.5290 na         1 9F8      -0.037400
     12 C11          2.1720    -0.1230     0.4640 c3         1 9F8      -0.235400
     13 C12          3.6750     0.1060     0.2220 c          1 9F8       0.932600
     14 O13          4.3710     0.2840     1.2410 o          1 9F8      -0.838300
     15 O14          4.0720     0.0990    -0.9600 o          1 9F8      -0.838300
     16 H1           1.7330    -1.2650    -1.3180 h1         1 9F8       0.061200
     17 H2           1.4640     0.4510    -1.4990 h1         1 9F8       0.061200
     18 H3          -3.3660    -2.6160     1.3400 hc         1 9F8       0.024033
     19 H4          -3.7820    -2.7000    -0.3620 hc         1 9F8       0.024033
     20 H5          -2.4880    -3.7070     0.2740 hc         1 9F8       0.024033
     21 H6          -0.0780    -2.7130    -0.4540 h4         1 9F8       0.158000
     22 H7           0.0950     2.2580    -0.6140 ha         1 9F8       0.144000
     23 H8          -1.8920     3.6160    -0.0830 ha         1 9F8       0.115000
     24 H9          -4.0290     2.5570     0.5370 ha         1 9F8       0.110000
     25 H10         -4.2380     0.1000     0.6430 ha         1 9F8       0.115000
     26 H11          1.7670     0.7480     0.9900 hc         1 9F8       0.032700
     27 H12          2.0490    -0.9650     1.1530 hc         1 9F8       0.032700
@<TRIPOS>BOND
     1     1    11 1   
     2     1    12 1   
     3     1    16 1   
     4     1    17 1   
     5     2     4 1   
     6     2    18 1   
     7     2    19 1   
     8     2    20 1   
     9     3     4 2   
    10     3    11 1   
    11     3    21 1   
    12     4     5 1   
    13     5     6 ar  
    14     5    10 ar  
    15     6     7 ar  
    16     6    11 1   
    17     7     8 ar  
    18     7    22 1   
    19     8     9 ar  
    20     8    23 1   
    21     9    10 ar  
    22     9    24 1   
    23    10    25 1   
    24    12    13 1   
    25    12    26 1   
    26    12    27 1   
    27    13    14 1   
    28    13    15 1   
@<TRIPOS>SUBSTRUCTURE
     1 9F8         1 TEMP              0 ****  ****    0 ROOT
