@<TRIPOS>MOLECULE
9F9
   55    58     1     0     0
SMALL
abcg2


@<TRIPOS>ATOM
      1 C01          5.0650     2.5310    -1.4250 c3         1 9F9       0.147900
      2 O05          4.0010     1.9630    -0.6860 os         1 9F9      -0.321100
      3 C06          4.2340     0.8610     0.0400 ca         1 9F9       0.190100
      4 C07          5.4780     0.2390     0.1360 ca         1 9F9      -0.209000
      5 C09          5.6220    -0.9190     0.8890 ca         1 9F9      -0.051000
      6 C11          4.5400    -1.4790     1.5470 ca         1 9F9      -0.158000
      7 C13          3.3000    -0.8650     1.4440 ca         1 9F9      -0.051000
      8 C15          3.1330     0.3010     0.7060 ca         1 9F9      -0.191600
      9 C16          1.7940     0.9670     0.6620 c          1 9F9       0.634700
     10 O17          1.6330     2.1380     0.9620 o          1 9F9      -0.574100
     11 N18          0.8070     0.1260     0.2850 ns         1 9F9      -0.142000
     12 C20         -0.5710     0.3250     0.2130 ca         1 9F9       0.003000
     13 C21         -1.1960     1.5660     0.3730 ca         1 9F9      -0.138000
     14 C23         -2.5700     1.5980     0.2390 ca         1 9F9       0.030600
     15 N24         -3.4580     2.6450     0.3370 n          1 9F9      -0.290000
     16 C25         -3.1030     4.0180     0.5900 c3         1 9F9       0.104300
     17 C29         -4.7400     2.1950     0.1140 c          1 9F9       0.596000
     18 O30         -5.7590     2.8630     0.1210 o          1 9F9      -0.568000
     19 N31         -4.6380     0.8440    -0.1170 n          1 9F9      -0.291000
     20 C32         -5.7480    -0.0300    -0.3940 c3         1 9F9       0.107300
     21 C36         -3.3170     0.4560    -0.0440 ca         1 9F9      -0.024400
     22 C37         -2.7080    -0.7720    -0.1930 ca         1 9F9      -0.105000
     23 C39         -1.3220    -0.8360    -0.0640 ca         1 9F9       0.168000
     24 N40         -0.6020    -2.0510    -0.1930 nh         1 9F9      -0.790400
     25 C41         -0.9000    -2.8280    -1.3890 c6         1 9F9       0.182800
     26 C44          0.1280    -3.9360    -1.5600 c6         1 9F9      -0.079400
     27 C47          0.1880    -4.8230    -0.3210 c6         1 9F9      -0.075400
     28 C50          0.4190    -3.9770     0.9250 c6         1 9F9      -0.079400
     29 C53         -0.6110    -2.8640     1.0220 c6         1 9F9       0.182800
     30 H011         5.4700     1.8310    -2.1590 h1         1 9F9       0.043700
     31 H012         4.6500     3.3890    -1.9490 h1         1 9F9       0.043700
     32 H013         5.8760     2.8740    -0.7770 h1         1 9F9       0.043700
     33 H07          6.3410     0.6430    -0.3750 ha         1 9F9       0.121000
     34 H09          6.5980    -1.3830     0.9550 ha         1 9F9       0.114000
     35 H11          4.6540    -2.3800     2.1340 ha         1 9F9       0.119000
     36 H13          2.4500    -1.2890     1.9660 ha         1 9F9       0.119000
     37 H18          1.0560    -0.8190     0.0060 hn         1 9F9       0.185000
     38 H21         -0.6290     2.4600     0.5800 ha         1 9F9       0.160000
     39 H251        -2.5820     4.4530    -0.2630 h1         1 9F9       0.052700
     40 H252        -4.0060     4.5910     0.7770 h1         1 9F9       0.052700
     41 H253        -2.4610     4.0850     1.4660 h1         1 9F9       0.052700
     42 H321        -6.6630     0.5540    -0.4150 h1         1 9F9       0.049367
     43 H322        -5.6230    -0.5170    -1.3610 h1         1 9F9       0.049367
     44 H323        -5.8400    -0.7960     0.3770 h1         1 9F9       0.049367
     45 H37         -3.2790    -1.6680    -0.4030 ha         1 9F9       0.123000
     46 H411        -1.9080    -3.2710    -1.3470 h1         1 9F9       0.036950
     47 H412        -0.8810    -2.1580    -2.2500 h1         1 9F9       0.036950
     48 H531        -0.3950    -2.2180     1.8750 h1         1 9F9       0.036950
     49 H532        -1.6100    -3.2960     1.1980 h1         1 9F9       0.036950
     50 H441        -0.1210    -4.5240    -2.4460 hc         1 9F9       0.046700
     51 H442         1.1090    -3.4860    -1.7390 hc         1 9F9       0.046700
     52 H471        -0.7530    -5.3730    -0.2200 hc         1 9F9       0.040700
     53 H472         0.9770    -5.5710    -0.4260 hc         1 9F9       0.040700
     54 H501         0.3740    -4.5910     1.8270 hc         1 9F9       0.046700
     55 H502         1.4210    -3.5350     0.8880 hc         1 9F9       0.046700
@<TRIPOS>BOND
     1     1     2 1   
     2     1    30 1   
     3     1    31 1   
     4     1    32 1   
     5     2     3 1   
     6     3     4 ar  
     7     3     8 ar  
     8     4     5 ar  
     9     4    33 1   
    10     5     6 ar  
    11     5    34 1   
    12     6     7 ar  
    13     6    35 1   
    14     7     8 ar  
    15     7    36 1   
    16     8     9 1   
    17     9    10 2   
    18     9    11 1   
    19    11    12 1   
    20    11    37 1   
    21    12    13 ar  
    22    12    23 ar  
    23    13    14 ar  
    24    13    38 1   
    25    14    15 1   
    26    14    21 ar  
    27    15    16 1   
    28    15    17 1   
    29    16    39 1   
    30    16    40 1   
    31    16    41 1   
    32    17    18 2   
    33    17    19 1   
    34    19    20 1   
    35    19    21 1   
    36    20    42 1   
    37    20    43 1   
    38    20    44 1   
    39    21    22 ar  
    40    22    23 ar  
    41    22    45 1   
    42    23    24 1   
    43    24    25 1   
    44    24    29 1   
    45    25    26 1   
    46    25    46 1   
    47    25    47 1   
    48    26    27 1   
    49    26    50 1   
    50    26    51 1   
    51    27    28 1   
    52    27    52 1   
    53    27    53 1   
    54    28    29 1   
    55    28    54 1   
    56    28    55 1   
    57    29    48 1   
    58    29    49 1   
@<TRIPOS>SUBSTRUCTURE
     1 9F9         1 TEMP              0 ****  ****    0 ROOT
