@<TRIPOS>MOLECULE
9F9
   55    58     1     0     0
SMALL
No Charge or Current Charge


@<TRIPOS>ATOM
      1 C01          5.4880     2.7760    -1.1840 c3         1 9F9       0.147900
      2 O05          4.3200     2.1070    -0.6750 os         1 9F9      -0.321100
      3 C06          4.3840     0.9270     0.0420 ca         1 9F9       0.190100
      4 C07          5.6240     0.2900     0.2840 ca         1 9F9      -0.209000
      5 C09          5.6790    -0.9270     0.9780 ca         1 9F9      -0.051000
      6 C11          4.4980    -1.5200     1.4370 ca         1 9F9      -0.158000
      7 C13          3.2610    -0.9010     1.2050 ca         1 9F9      -0.051000
      8 C15          3.1840     0.3290     0.5050 ca         1 9F9      -0.191600
      9 C16          1.8350     0.9800     0.2730 c          1 9F9       0.634700
     10 O17          1.6920     2.1940     0.1780 o          1 9F9      -0.574100
     11 N18          0.7700     0.0930     0.2280 ns         1 9F9      -0.142000
     12 C20         -0.6340     0.2760     0.1030 ca         1 9F9       0.003000
     13 C21         -1.2600     1.5390     0.2600 ca         1 9F9      -0.138000
     14 C23         -2.6420     1.6280     0.0610 ca         1 9F9       0.030600
     15 N24         -3.5350     2.6720     0.4310 n          1 9F9      -0.290000
     16 C25         -3.1630     4.0950     0.5140 c3         1 9F9       0.104300
     17 C29         -4.8600     2.2160     0.3900 c          1 9F9       0.596000
     18 O30         -5.8790     2.8700     0.5680 o          1 9F9      -0.568000
     19 N31         -4.7690     0.8590     0.0510 n          1 9F9      -0.291000
     20 C32         -5.9280     0.0300    -0.3200 c3         1 9F9       0.107300
     21 C36         -3.4110     0.4970    -0.1700 ca         1 9F9      -0.024400
     22 C37         -2.8340    -0.7770    -0.2120 ca         1 9F9      -0.105000
     23 C39         -1.4280    -0.8850    -0.1280 ca         1 9F9       0.168000
     24 N40         -0.8190    -2.1610    -0.2130 nh         1 9F9      -0.790400
     25 C41         -1.1640    -3.0550    -1.3540 c6         1 9F9       0.182800
     26 C44         -0.0480    -4.0980    -1.6020 c6         1 9F9      -0.079400
     27 C47          0.2540    -4.9080    -0.3200 c6         1 9F9      -0.075400
     28 C50          0.5850    -3.9480     0.8470 c6         1 9F9      -0.079400
     29 C53         -0.5400    -2.9010     1.0490 c6         1 9F9       0.182800
     30 H011         6.0300     2.1340    -1.8900 h1         1 9F9       0.043700
     31 H012         5.2000     3.6930    -1.7130 h1         1 9F9       0.043700
     32 H013         6.1660     3.0540    -0.3670 h1         1 9F9       0.043700
     33 H07          6.5580     0.7210    -0.0630 ha         1 9F9       0.121000
     34 H09          6.6380    -1.4100     1.1600 ha         1 9F9       0.114000
     35 H11          4.5400    -2.4620     1.9810 ha         1 9F9       0.119000
     36 H13          2.3670    -1.3780     1.6010 ha         1 9F9       0.119000
     37 H18          1.0350    -0.8820     0.2610 hn         1 9F9       0.185000
     38 H21         -0.7030     2.4260     0.5450 ha         1 9F9       0.160000
     39 H251        -2.9190     4.4700    -0.4870 h1         1 9F9       0.052700
     40 H252        -3.9930     4.6820     0.9270 h1         1 9F9       0.052700
     41 H253        -2.2890     4.2110     1.1670 h1         1 9F9       0.052700
     42 H321        -6.7270     0.6600    -0.7310 h1         1 9F9       0.049367
     43 H322        -5.6340    -0.7070    -1.0780 h1         1 9F9       0.049367
     44 H323        -6.3020    -0.4950     0.5680 h1         1 9F9       0.049367
     45 H37         -3.4540    -1.6640    -0.2920 ha         1 9F9       0.123000
     46 H411        -2.1100    -3.5790    -1.1490 h1         1 9F9       0.036950
     47 H412        -1.3060    -2.4620    -2.2700 h1         1 9F9       0.036950
     48 H531        -0.2360    -2.2020     1.8420 h1         1 9F9       0.036950
     49 H532        -1.4530    -3.4100     1.3920 h1         1 9F9       0.036950
     50 H441        -0.3460    -4.7760    -2.4130 hc         1 9F9       0.046700
     51 H442         0.8630    -3.5850    -1.9400 hc         1 9F9       0.046700
     52 H471        -0.6150    -5.5270    -0.0570 hc         1 9F9       0.040700
     53 H472         1.0930    -5.5950    -0.4940 hc         1 9F9       0.040700
     54 H501         0.7320    -4.5180     1.7740 hc         1 9F9       0.046700
     55 H502         1.5330    -3.4350     0.6400 hc         1 9F9       0.046700
@<TRIPOS>BOND
     1     1     2 1   
     2     1    30 1   
     3     1    31 1   
     4     1    32 1   
     5     2     3 1   
     6     3     4 ar  
     7     3     8 ar  
     8     4     5 ar  
     9     4    33 1   
    10     5     6 ar  
    11     5    34 1   
    12     6     7 ar  
    13     6    35 1   
    14     7     8 ar  
    15     7    36 1   
    16     8     9 1   
    17     9    10 2   
    18     9    11 1   
    19    11    12 1   
    20    11    37 1   
    21    12    13 ar  
    22    12    23 ar  
    23    13    14 ar  
    24    13    38 1   
    25    14    15 1   
    26    14    21 ar  
    27    15    16 1   
    28    15    17 1   
    29    16    39 1   
    30    16    40 1   
    31    16    41 1   
    32    17    18 2   
    33    17    19 1   
    34    19    20 1   
    35    19    21 1   
    36    20    42 1   
    37    20    43 1   
    38    20    44 1   
    39    21    22 ar  
    40    22    23 ar  
    41    22    45 1   
    42    23    24 1   
    43    24    25 1   
    44    24    29 1   
    45    25    26 1   
    46    25    46 1   
    47    25    47 1   
    48    26    27 1   
    49    26    50 1   
    50    26    51 1   
    51    27    28 1   
    52    27    52 1   
    53    27    53 1   
    54    28    29 1   
    55    28    54 1   
    56    28    55 1   
    57    29    48 1   
    58    29    49 1   
@<TRIPOS>SUBSTRUCTURE
     1 9F9         1 TEMP              0 ****  ****    0 ROOT
