@<TRIPOS>MOLECULE
9FA
   71    75     1     0     0
SMALL
abcg2


@<TRIPOS>ATOM
      1 C13          4.8520    -0.7770     0.2670 ce         1 9FA      -0.086200
      2 C18         -0.6600     0.1380     0.7380 cc         1 9FA       0.383800
      3 C17          0.3860     0.5960     1.7160 c3         1 9FA       0.096400
      4 C15          2.5880    -0.2660     1.0410 c          1 9FA       0.593300
      5 C19         -0.0270     1.9170     2.3870 c3         1 9FA      -0.046200
      6 C20         -3.9620    -0.5760    -0.3260 ca         1 9FA      -0.109500
      7 C21         -4.4450    -1.8100    -0.7570 ca         1 9FA      -0.066000
      8 C22         -5.7950    -2.1060    -0.8510 ca         1 9FA      -0.143000
      9 C23         -6.7290    -1.1360    -0.4870 ca         1 9FA       0.010000
     10 C24         -6.2660     0.1170    -0.0900 ca         1 9FA      -0.208000
     11 C34         -3.7690     3.9860     0.2180 c3         1 9FA      -0.153400
     12 C27         -1.5550    -0.5940    -1.1240 cc         1 9FA      -0.194000
     13 C33         -2.3440     4.4520     0.5450 c3         1 9FA      -0.017500
     14 C2           8.4900    -1.0230    -0.7030 ca         1 9FA      -0.096000
     15 C3           8.5820    -0.0710    -1.7020 ca         1 9FA      -0.086000
     16 C4           7.4520     0.6660    -2.0260 ca         1 9FA       0.126000
     17 C5           6.2450     0.4560    -1.3860 ca         1 9FA      -0.088000
     18 C6           6.1340    -0.5100    -0.3860 ca         1 9FA      -0.029800
     19 C7           7.2820    -1.2370    -0.0600 ca         1 9FA       0.009800
     20 N8           7.2340    -2.2130     0.9640 na         1 9FA      -0.003500
     21 C9           7.5430    -3.5140     0.9160 cc         1 9FA       0.393400
     22 N10          7.3900    -4.0100     2.1130 nd         1 9FA      -0.376000
     23 N11          6.9880    -2.9950     2.8830 nd         1 9FA      -0.035000
     24 N12          6.8930    -1.9170     2.2170 nc         1 9FA      -0.186800
     25 C14          3.8730     0.1170     0.4050 cf         1 9FA      -0.279200
     26 O16          2.3720    -1.3840     1.4840 o          1 9FA      -0.580100
     27 C25         -4.9100     0.4050    -0.0150 ca         1 9FA       0.016000
     28 N26         -0.3800    -0.2580    -0.5210 na         1 9FA      -0.282500
     29 C28         -2.5190    -0.3730    -0.1810 cd         1 9FA       0.302500
     30 N29         -1.9440     0.0760     0.9760 nd         1 9FA      -0.659000
     31 N30         -4.5550     1.7060     0.3920 ns         1 9FA      -0.147000
     32 C31         -0.5400     2.9310     1.4130 c2         1 9FA      -0.215200
     33 C32         -1.7280     3.5090     1.5310 c2         1 9FA      -0.201200
     34 C35         -3.8230     2.5810    -0.3450 c          1 9FA       0.613100
     35 N36         -8.1130    -1.3090    -0.5200 ns         1 9FA      -0.139000
     36 C37         -8.8090    -2.4610    -0.7040 c          1 9FA       0.645100
     37 O38        -10.1140    -2.2060    -0.6350 os         1 9FA      -0.460100
     38 O39         -8.3390    -3.5580    -0.9010 o          1 9FA      -0.520000
     39 C40        -10.9970    -3.3150    -0.7830 c3         1 9FA       0.171900
     40 O41         -3.2750     2.2770    -1.3880 o          1 9FA      -0.581100
     41 C42         -2.3830     5.8810     1.0850 c3         1 9FA      -0.086100
     42 N43          1.6760     0.7280     1.0750 ns         1 9FA      -0.520900
     43 H48          4.6890    -1.7790     0.6480 ha         1 9FA       0.214000
     44 H50          0.4880    -0.1600     2.4990 h1         1 9FA       0.100700
     45 H51         -0.8050     1.7000     3.1200 hc         1 9FA       0.063700
     46 H52          0.8400     2.2880     2.9420 hc         1 9FA       0.063700
     47 H53         -3.7320    -2.5850    -1.0050 ha         1 9FA       0.119000
     48 H54         -6.0990    -3.0830    -1.1850 ha         1 9FA       0.149000
     49 H55         -6.9790     0.8970     0.1560 ha         1 9FA       0.108000
     50 H62         -4.3860     4.0740     1.1160 hc         1 9FA       0.056700
     51 H63         -4.2050     4.6550    -0.5290 hc         1 9FA       0.056700
     52 H57         -1.6080    -0.9170    -2.1500 h4         1 9FA       0.162000
     53 H61         -1.7510     4.4410    -0.3740 hc         1 9FA       0.067700
     54 H44          9.3650    -1.5910    -0.4180 ha         1 9FA       0.137000
     55 H45          9.5210     0.0970    -2.2110 ha         1 9FA       0.143000
     56 H46          5.3740     1.0220    -1.6850 ha         1 9FA       0.138000
     57 H47          7.8490    -4.0350     0.0230 h5         1 9FA       0.079100
     58 H49          3.9890     1.1410     0.0690 ha         1 9FA       0.180000
     59 H56          0.5290    -0.2840    -0.9550 hn         1 9FA       0.352000
     60 H58         -5.0870     2.0880     1.1590 hn         1 9FA       0.147000
     61 H59          0.0790     3.1650     0.5480 ha         1 9FA       0.162000
     62 H60         -2.3390     3.2690     2.4010 ha         1 9FA       0.171000
     63 H64         -8.6610    -0.4850    -0.3200 hn         1 9FA       0.164000
     64 H65        -10.8730    -3.8030    -1.7490 h1         1 9FA       0.050700
     65 H67        -10.8570    -4.0460     0.0130 h1         1 9FA       0.050700
     66 H66        -12.0000    -2.9030    -0.7170 h1         1 9FA       0.050700
     67 H69         -2.9570     5.9340     2.0130 hc         1 9FA       0.036700
     68 H70         -1.3770     6.2470     1.2900 hc         1 9FA       0.036700
     69 H68         -2.8490     6.5580     0.3660 hc         1 9FA       0.036700
     70 H71          1.9340     1.6290     0.7050 hn         1 9FA       0.317500
     71 CL1          7.5490     1.8600    -3.2700 cl         1 9FA      -0.176000
@<TRIPOS>BOND
     1     1    18 1   
     2     1    25 2   
     3     1    43 1   
     4     2     3 1   
     5     2    28 1   
     6     2    30 2   
     7     3     5 1   
     8     3    42 1   
     9     3    44 1   
    10     4    25 1   
    11     4    26 2   
    12     4    42 1   
    13     5    32 1   
    14     5    45 1   
    15     5    46 1   
    16     6     7 ar  
    17     6    27 ar  
    18     6    29 1   
    19     7     8 ar  
    20     7    47 1   
    21     8     9 ar  
    22     8    48 1   
    23     9    10 ar  
    24     9    35 1   
    25    10    27 ar  
    26    10    49 1   
    27    11    13 1   
    28    11    34 1   
    29    11    50 1   
    30    11    51 1   
    31    12    28 1   
    32    12    29 2   
    33    12    52 1   
    34    13    33 1   
    35    13    41 1   
    36    13    53 1   
    37    14    15 ar  
    38    14    19 ar  
    39    14    54 1   
    40    15    16 ar  
    41    15    55 1   
    42    16    17 ar  
    43    16    71 1   
    44    17    18 ar  
    45    17    56 1   
    46    18    19 ar  
    47    19    20 1   
    48    20    21 1   
    49    20    24 1   
    50    21    22 2   
    51    21    57 1   
    52    22    23 1   
    53    23    24 2   
    54    25    58 1   
    55    27    31 1   
    56    28    59 1   
    57    29    30 1   
    58    31    34 1   
    59    31    60 1   
    60    32    33 2   
    61    32    61 1   
    62    33    62 1   
    63    34    40 2   
    64    35    36 1   
    65    35    63 1   
    66    36    37 1   
    67    36    38 2   
    68    37    39 1   
    69    39    64 1   
    70    39    65 1   
    71    39    66 1   
    72    41    67 1   
    73    41    68 1   
    74    41    69 1   
    75    42    70 1   
@<TRIPOS>SUBSTRUCTURE
     1 9FA         1 TEMP              0 ****  ****    0 ROOT
