@<TRIPOS>MOLECULE
9FA
   71    75     1     0     0
SMALL
No Charge or Current Charge


@<TRIPOS>ATOM
      1 C13          4.8350    -0.6050     0.1790 ce         1 9FA      -0.086200
      2 C18         -0.6750    -0.1550     1.3880 cc         1 9FA       0.383800
      3 C17          0.3890     0.6090     2.1790 c3         1 9FA       0.096400
      4 C15          2.5820    -0.2020     1.2210 c          1 9FA       0.593300
      5 C19         -0.0770     1.9720     2.7550 c3         1 9FA      -0.046200
      6 C20         -3.9480    -0.8510     0.0420 ca         1 9FA      -0.109500
      7 C21         -4.5060    -2.1030    -0.3100 ca         1 9FA      -0.066000
      8 C22         -5.8760    -2.2480    -0.5830 ca         1 9FA      -0.143000
      9 C23         -6.7380    -1.1410    -0.5030 ca         1 9FA       0.010000
     10 C24         -6.1970     0.1070    -0.1620 ca         1 9FA      -0.208000
     11 C34         -3.6020     3.9010    -0.0130 c3         1 9FA      -0.153400
     12 C27         -1.5960    -1.8150     0.2220 cc         1 9FA      -0.194000
     13 C33         -2.2180     4.3840     0.4810 c3         1 9FA      -0.017500
     14 C2           8.4470    -0.7100    -1.0970 ca         1 9FA      -0.096000
     15 C3           8.4460     0.3710    -1.9930 ca         1 9FA      -0.086000
     16 C4           7.2800     1.1260    -2.1720 ca         1 9FA       0.126000
     17 C5           6.1150     0.8050    -1.4590 ca         1 9FA      -0.088000
     18 C6           6.0990    -0.2770    -0.5520 ca         1 9FA      -0.029800
     19 C7           7.2830    -1.0420    -0.3730 ca         1 9FA       0.009800
     20 N8           7.3320    -2.1170     0.5170 na         1 9FA      -0.003500
     21 C9           7.6300    -3.4040     0.1770 cc         1 9FA       0.393400
     22 N10          7.6920    -4.0640     1.3210 nd         1 9FA      -0.376000
     23 N11          7.4540    -3.1410     2.3260 nd         1 9FA      -0.035000
     24 N12          7.2600    -1.9360     1.8520 nc         1 9FA      -0.186800
     25 C14          3.7970     0.2280     0.4880 cf         1 9FA      -0.279200
     26 O16          2.4080    -1.3510     1.5980 o          1 9FA      -0.580100
     27 C25         -4.8230     0.2720     0.0970 ca         1 9FA       0.016000
     28 N26         -0.4350    -1.3800     0.8220 na         1 9FA      -0.282500
     29 C28         -2.5110    -0.8070     0.4210 cd         1 9FA       0.302500
     30 N29         -1.9390     0.1960     1.1840 nd         1 9FA      -0.659000
     31 N30         -4.3980     1.5980     0.3430 ns         1 9FA      -0.147000
     32 C31         -0.5110     2.9610     1.6890 c2         1 9FA      -0.215200
     33 C32         -1.7230     3.5280     1.6260 c2         1 9FA      -0.201200
     34 C35         -3.6140     2.4230    -0.4480 c          1 9FA       0.613100
     35 N36         -8.1340    -1.2110    -0.7570 ns         1 9FA      -0.139000
     36 C37         -8.9620    -2.2610    -1.1090 c          1 9FA       0.645100
     37 O38        -10.2420    -1.7920    -1.2350 os         1 9FA      -0.460100
     38 O39         -8.6280    -3.4250    -1.2840 o          1 9FA      -0.520000
     39 C40        -11.2710    -2.7320    -1.6000 c3         1 9FA       0.171900
     40 O41         -3.0630     2.0420    -1.4770 o          1 9FA      -0.581100
     41 C42         -2.2430     5.8720     0.8870 c3         1 9FA      -0.086100
     42 N43          1.6540     0.7860     1.4360 ns         1 9FA      -0.520900
     43 H48          4.7540    -1.6460     0.5020 ha         1 9FA       0.214000
     44 H50          0.6190    -0.0230     3.0480 h1         1 9FA       0.100700
     45 H51         -0.9000     1.7870     3.4580 hc         1 9FA       0.063700
     46 H52          0.7360     2.4020     3.3520 hc         1 9FA       0.063700
     47 H53         -3.8850    -2.9930    -0.3520 ha         1 9FA       0.119000
     48 H54         -6.2460    -3.2350    -0.8430 ha         1 9FA       0.149000
     49 H55         -6.8530     0.9740    -0.1170 ha         1 9FA       0.108000
     50 H62         -4.3330     4.0550     0.7910 hc         1 9FA       0.056700
     51 H63         -3.8890     4.5110    -0.8780 hc         1 9FA       0.056700
     52 H57         -1.6780    -2.7680    -0.2840 h4         1 9FA       0.162000
     53 H61         -1.5190     4.2940    -0.3610 hc         1 9FA       0.067700
     54 H44          9.3610    -1.2860    -0.9590 ha         1 9FA       0.137000
     55 H45          9.3470     0.6230    -2.5460 ha         1 9FA       0.143000
     56 H46          5.2190     1.3950    -1.6280 ha         1 9FA       0.138000
     57 H47          7.7740    -3.7670    -0.8320 h5         1 9FA       0.079100
     58 H49          3.8450     1.2760     0.2000 ha         1 9FA       0.180000
     59 H56          0.4560    -1.8640     0.8680 hn         1 9FA       0.352000
     60 H58         -4.8360     2.0470     1.1370 hn         1 9FA       0.147000
     61 H59          0.2220     3.1430     0.9010 ha         1 9FA       0.162000
     62 H60         -2.4650     3.3300     2.4020 ha         1 9FA       0.171000
     63 H64         -8.6170    -0.3280    -0.6630 hn         1 9FA       0.164000
     64 H65        -11.0580    -3.1880    -2.5760 h1         1 9FA       0.050700
     65 H67        -11.3540    -3.5320    -0.8530 h1         1 9FA       0.050700
     66 H66        -12.2430    -2.2280    -1.6660 h1         1 9FA       0.050700
     67 H69         -2.9330     6.0380     1.7240 hc         1 9FA       0.036700
     68 H70         -1.2440     6.2030     1.1950 hc         1 9FA       0.036700
     69 H68         -2.5640     6.4990     0.0460 hc         1 9FA       0.036700
     70 H71          1.8800     1.7070     1.0820 hn         1 9FA       0.317500
     71 Cl1          7.2740     2.4770    -3.2980 cl         1 9FA      -0.176000
@<TRIPOS>BOND
     1     1    18 1   
     2     1    25 2   
     3     1    43 1   
     4     2     3 1   
     5     2    28 1   
     6     2    30 2   
     7     3     5 1   
     8     3    42 1   
     9     3    44 1   
    10     4    25 1   
    11     4    26 2   
    12     4    42 1   
    13     5    32 1   
    14     5    45 1   
    15     5    46 1   
    16     6     7 ar  
    17     6    27 ar  
    18     6    29 1   
    19     7     8 ar  
    20     7    47 1   
    21     8     9 ar  
    22     8    48 1   
    23     9    10 ar  
    24     9    35 1   
    25    10    27 ar  
    26    10    49 1   
    27    11    13 1   
    28    11    34 1   
    29    11    50 1   
    30    11    51 1   
    31    12    28 1   
    32    12    29 2   
    33    12    52 1   
    34    13    33 1   
    35    13    41 1   
    36    13    53 1   
    37    14    15 ar  
    38    14    19 ar  
    39    14    54 1   
    40    15    16 ar  
    41    15    55 1   
    42    16    17 ar  
    43    16    71 1   
    44    17    18 ar  
    45    17    56 1   
    46    18    19 ar  
    47    19    20 1   
    48    20    21 1   
    49    20    24 1   
    50    21    22 2   
    51    21    57 1   
    52    22    23 1   
    53    23    24 2   
    54    25    58 1   
    55    27    31 1   
    56    28    59 1   
    57    29    30 1   
    58    31    34 1   
    59    31    60 1   
    60    32    33 2   
    61    32    61 1   
    62    33    62 1   
    63    34    40 2   
    64    35    36 1   
    65    35    63 1   
    66    36    37 1   
    67    36    38 2   
    68    37    39 1   
    69    39    64 1   
    70    39    65 1   
    71    39    66 1   
    72    41    67 1   
    73    41    68 1   
    74    41    69 1   
    75    42    70 1   
@<TRIPOS>SUBSTRUCTURE
     1 9FA         1 TEMP              0 ****  ****    0 ROOT
