@<TRIPOS>MOLECULE
9FB
   19    19     1     0     0
SMALL
abcg2


@<TRIPOS>ATOM
      1 C64          7.0290    23.6190   -22.9850 c          1 9FB       0.728000
      2 O16          5.9100    23.5420   -23.5390 o          1 9FB      -0.743000
      3 C63          8.2570    23.7520   -23.9010 c5         1 9FB      -0.179700
      4 C66          9.5520    23.1240   -23.3670 c5         1 9FB      -0.044400
      5 C62         10.4360    22.8780   -24.6090 c5         1 9FB      -0.072400
      6 C65          8.1260    23.1790   -25.3140 c5         1 9FB       0.179500
      7 C61          9.5640    23.2530   -25.8210 c5         1 9FB      -0.081400
      8 N13          7.7030    21.7850   -25.2530 n8         1 9FB      -0.996200
      9 O1           7.2420    23.6340   -21.7560 o          1 9FB      -0.743000
     10 H1           8.4320    24.8310   -24.0240 hc         1 9FB       0.021700
     11 H2           9.3320    22.1810   -22.8660 hc         1 9FB       0.039200
     12 H3          10.0420    23.7630   -22.6320 hc         1 9FB       0.039200
     13 H4          10.7480    21.8340   -24.6600 hc         1 9FB       0.014200
     14 H5          11.3500    23.4720   -24.5850 hc         1 9FB       0.014200
     15 H6           7.4620    23.7990   -25.9320 h1         1 9FB       0.016700
     16 H7           9.7370    22.6130   -26.6900 hc         1 9FB       0.015700
     17 H8           9.7750    24.2780   -26.1370 hc         1 9FB       0.015700
     18 H9           6.7520    21.7570   -24.9080 hn         1 9FB       0.388000
     19 H10          7.6760    21.4020   -26.1900 hn         1 9FB       0.388000
@<TRIPOS>BOND
     1     1     2 1   
     2     1     3 1   
     3     1     9 1   
     4     3     4 1   
     5     3     6 1   
     6     3    10 1   
     7     4     5 1   
     8     4    11 1   
     9     4    12 1   
    10     5     7 1   
    11     5    13 1   
    12     5    14 1   
    13     6     7 1   
    14     6     8 1   
    15     6    15 1   
    16     7    16 1   
    17     7    17 1   
    18     8    18 1   
    19     8    19 1   
@<TRIPOS>SUBSTRUCTURE
     1 9FB         1 TEMP              0 ****  ****    0 ROOT
