@<TRIPOS>MOLECULE
9FB
   19    19     1     0     0
SMALL
No Charge or Current Charge


@<TRIPOS>ATOM
      1 C64          7.0470    23.5900   -23.0370 c          1 9FB       0.728000
      2 O16          6.5550    22.4790   -22.8850 o          1 9FB      -0.743000
      3 C63          8.3380    23.7700   -23.8850 c5         1 9FB      -0.179700
      4 C66          9.5160    22.8820   -23.3750 c5         1 9FB      -0.044400
      5 C62         10.4530    22.7610   -24.6230 c5         1 9FB      -0.072400
      6 C65          8.1680    23.2880   -25.3520 c5         1 9FB       0.179500
      7 C61          9.6500    23.3970   -25.8070 c5         1 9FB      -0.081400
      8 N13          7.6270    21.9320   -25.4970 n8         1 9FB      -0.996200
      9 O1           6.5540    24.5810   -22.5170 o          1 9FB      -0.743000
     10 H1           8.6210    24.8300   -23.8680 hc         1 9FB       0.021700
     11 H2           9.1760    21.8900   -23.0550 hc         1 9FB       0.039200
     12 H3          10.0250    23.3330   -22.5160 hc         1 9FB       0.039200
     13 H4          10.6960    21.7110   -24.8240 hc         1 9FB       0.014200
     14 H5          11.4060    23.2800   -24.4690 hc         1 9FB       0.014200
     15 H6           7.5110    23.9630   -25.9190 h1         1 9FB       0.016700
     16 H7           9.8410    22.8880   -26.7590 hc         1 9FB       0.015700
     17 H8           9.9360    24.4460   -25.9500 hc         1 9FB       0.015700
     18 H9           7.1160    21.7330   -24.6230 hn         1 9FB       0.388000
     19 H10          6.8890    21.9430   -26.2080 hn         1 9FB       0.388000
@<TRIPOS>BOND
     1     1     2 1   
     2     1     3 1   
     3     1     9 1   
     4     3     4 1   
     5     3     6 1   
     6     3    10 1   
     7     4     5 1   
     8     4    11 1   
     9     4    12 1   
    10     5     7 1   
    11     5    13 1   
    12     5    14 1   
    13     6     7 1   
    14     6     8 1   
    15     6    15 1   
    16     7    16 1   
    17     7    17 1   
    18     8    18 1   
    19     8    19 1   
@<TRIPOS>SUBSTRUCTURE
     1 9FB         1 TEMP              0 ****  ****    0 ROOT
