@<TRIPOS>MOLECULE
9FC
   51    53     1     0     0
SMALL
No Charge or Current Charge


@<TRIPOS>ATOM
      1 C7          -1.2410     2.4760    -0.4130 ca         1 9FC      -0.358600
      2 C4           1.1270     1.1270    -0.1330 ca         1 9FC       0.731900
      3 C5           1.1670     2.5200    -0.2390 ca         1 9FC      -0.235000
      4 C6          -0.0410     3.2150    -0.3790 ca         1 9FC       0.074000
      5 C3          -5.2950    -3.3730     1.0390 c3         1 9FC      -0.047800
      6 C2           2.4000     3.2410    -0.1900 cg         1 9FC       0.345000
      7 C1          -2.5690     3.1570    -0.5340 c          1 9FC       0.646700
      8 C8          -1.1420     1.0810    -0.3140 ca         1 9FC       0.741900
      9 N9           0.0010     0.4260    -0.1690 nb         1 9FC      -0.857000
     10 N10         -2.2440     0.2680    -0.3240 nu         1 9FC      -0.929900
     11 N11          2.2690     0.3640     0.0100 nu         1 9FC      -0.896100
     12 C12         -2.4850    -1.1070    -0.2680 ca         1 9FC       0.313000
     13 C13         -3.6850    -1.5440     0.3180 ca         1 9FC      -0.158000
     14 C14         -3.9960    -2.9150     0.3930 ca         1 9FC      -0.049300
     15 C15         -3.0990    -3.8580    -0.1410 ca         1 9FC      -0.137000
     16 C16         -1.9070    -3.4320    -0.7470 ca         1 9FC      -0.091000
     17 C17         -1.6050    -2.0610    -0.8150 ca         1 9FC      -0.138000
     18 C18          2.4060    -1.0610    -0.3500 c6         1 9FC       0.244500
     19 C19          1.9350    -2.0150     0.7880 c6         1 9FC      -0.086400
     20 C20          2.9000    -2.0270     2.0000 c6         1 9FC      -0.074400
     21 C21          4.3390    -2.3770     1.5590 c6         1 9FC      -0.073400
     22 C22          4.8460    -1.3840     0.4860 c6         1 9FC      -0.076400
     23 C23          3.9060    -1.3400    -0.7510 c6         1 9FC       0.145500
     24 N24          4.4270    -0.3290    -1.7170 n8         1 9FC      -1.018200
     25 N25          3.4120     3.8200    -0.1500 n1         1 9FC      -0.481000
     26 O26         -3.6330     2.5780    -0.3970 o          1 9FC      -0.654100
     27 N27         -2.5860     4.4800    -0.7810 nt         1 9FC      -0.590000
     28 H1          -0.0300     4.3010    -0.4450 ha         1 9FC       0.116000
     29 H2          -6.1100    -3.3900     0.3060 hc         1 9FC       0.042700
     30 H3          -5.2010    -4.3810     1.4590 hc         1 9FC       0.042700
     31 H4          -5.5920    -2.7030     1.8550 hc         1 9FC       0.042700
     32 H5          -3.0830     0.8500    -0.2620 hn         1 9FC       0.548000
     33 H6           3.1110     0.8960    -0.1950 hn         1 9FC       0.524000
     34 H7          -4.3790    -0.8150     0.7280 ha         1 9FC       0.119000
     35 H8          -3.3290    -4.9200    -0.0940 ha         1 9FC       0.112000
     36 H9          -1.2200    -4.1620    -1.1710 ha         1 9FC       0.107000
     37 H10         -0.6920    -1.7470    -1.3090 ha         1 9FC       0.142000
     38 H11          1.7950    -1.2650    -1.2430 h1         1 9FC       0.056700
     39 H12          0.9230    -1.7530     1.1210 hc         1 9FC       0.057700
     40 H13          1.8600    -3.0340     0.3830 hc         1 9FC       0.057700
     41 H14          2.8890    -1.0450     2.4950 hc         1 9FC       0.046700
     42 H15          2.5510    -2.7540     2.7450 hc         1 9FC       0.046700
     43 H16          5.0100    -2.3590     2.4290 hc         1 9FC       0.041200
     44 H17          4.3690    -3.4020     1.1620 hc         1 9FC       0.041200
     45 H18          4.9320    -0.3830     0.9310 hc         1 9FC       0.048200
     46 H19          5.8600    -1.6720     0.1750 hc         1 9FC       0.048200
     47 H20          3.9510    -2.3200    -1.2500 h1         1 9FC       0.029700
     48 H21          5.3800    -0.5970    -1.9930 hn         1 9FC       0.405000
     49 H22          3.8990    -0.4070    -2.5950 hn         1 9FC       0.405000
     50 H24         -1.7280     4.9900    -0.9110 hn         1 9FC       0.315500
     51 H25         -3.4770     4.9480    -0.8570 hn         1 9FC       0.315500
@<TRIPOS>BOND
     1     1     4 ar  
     2     1     7 1   
     3     1     8 ar  
     4     2     3 ar  
     5     2     9 ar  
     6     2    11 1   
     7     3     4 ar  
     8     3     6 1   
     9     4    28 1   
    10     5    14 1   
    11     5    29 1   
    12     5    30 1   
    13     5    31 1   
    14     6    25 3   
    15     7    26 2   
    16     7    27 1   
    17     8     9 ar  
    18     8    10 1   
    19    10    12 1   
    20    10    32 1   
    21    11    18 1   
    22    11    33 1   
    23    12    13 ar  
    24    12    17 ar  
    25    13    14 ar  
    26    13    34 1   
    27    14    15 ar  
    28    15    16 ar  
    29    15    35 1   
    30    16    17 ar  
    31    16    36 1   
    32    17    37 1   
    33    18    19 1   
    34    18    23 1   
    35    18    38 1   
    36    19    20 1   
    37    19    39 1   
    38    19    40 1   
    39    20    21 1   
    40    20    41 1   
    41    20    42 1   
    42    21    22 1   
    43    21    43 1   
    44    21    44 1   
    45    22    23 1   
    46    22    45 1   
    47    22    46 1   
    48    23    24 1   
    49    23    47 1   
    50    24    48 1   
    51    24    49 1   
    52    27    50 1   
    53    27    51 1   
@<TRIPOS>SUBSTRUCTURE
     1 9FC         1 TEMP              0 ****  ****    0 ROOT
