@<TRIPOS>MOLECULE
9FC
   51    53     1     0     0
SMALL
bcc


@<TRIPOS>ATOM
      1 C7          -1.1960     2.3570    -0.2120 ca         1 9FC      -0.423900
      2 C4           1.1960     0.9480    -0.3900 ca         1 9FC       0.797200
      3 C5           1.2090     2.3700    -0.4720 ca         1 9FC      -0.300300
      4 C6          -0.0020     3.0350    -0.3670 ca         1 9FC       0.056000
      5 C3          -5.6430    -3.2600     0.2260 c3         1 9FC      -0.047800
      6 C2           2.4220     3.0770    -0.6230 cg         1 9FC       0.255800
      7 C1          -2.4820     3.0720    -0.0540 c          1 9FC       0.713700
      8 C8          -1.1100     0.9240    -0.2290 ca         1 9FC       0.807200
      9 N9           0.0510     0.2870    -0.2880 nb         1 9FC      -0.857000
     10 N10         -2.2460     0.2020    -0.1800 nu         1 9FC      -0.736300
     11 N11          2.3380     0.2550    -0.4140 nu         1 9FC      -0.840900
     12 C12         -2.4780    -1.1730    -0.1680 ca         1 9FC       0.174600
     13 C13         -3.8130    -1.5540     0.0240 ca         1 9FC      -0.176000
     14 C14         -4.2010    -2.8840     0.0430 ca         1 9FC      -0.049300
     15 C15         -3.2260    -3.8680    -0.1280 ca         1 9FC      -0.155000
     16 C16         -1.9050    -3.5000    -0.3200 ca         1 9FC      -0.109000
     17 C17         -1.5160    -2.1670    -0.3450 ca         1 9FC      -0.156000
     18 C18          2.4310    -1.1940    -0.3950 c6         1 9FC       0.244500
     19 C19          2.0780    -1.7860     0.9710 c6         1 9FC      -0.086400
     20 C20          3.0820    -1.3960     2.0480 c6         1 9FC      -0.074400
     21 C21          4.4920    -1.8110     1.6500 c6         1 9FC      -0.073400
     22 C22          4.8720    -1.2200     0.2980 c6         1 9FC      -0.076400
     23 C23          3.8640    -1.5830    -0.7900 c6         1 9FC       0.145500
     24 N24          4.2240    -0.9090    -2.0270 n8         1 9FC      -0.907800
     25 N25          3.4300     3.6280    -0.7440 n1         1 9FC      -0.391800
     26 O26         -3.5680     2.4960    -0.1810 o          1 9FC      -0.654100
     27 N27         -2.4320     4.3810     0.2320 nt         1 9FC      -0.657000
     28 H1           0.0160     4.1150    -0.4250 ha         1 9FC       0.134000
     29 H2          -6.0770    -3.6100    -0.7130 hc         1 9FC       0.042700
     30 H3          -5.7550    -4.0680     0.9510 hc         1 9FC       0.042700
     31 H4          -6.2400    -2.4160     0.5690 hc         1 9FC       0.042700
     32 H5          -3.0780     0.7930    -0.1670 hn         1 9FC       0.492800
     33 H6           3.1640     0.7260    -0.7560 hn         1 9FC       0.468800
     34 H7          -4.5660    -0.7850     0.1610 ha         1 9FC       0.137000
     35 H8          -3.5020    -4.9150    -0.1080 ha         1 9FC       0.130000
     36 H9          -1.1510    -4.2650    -0.4550 ha         1 9FC       0.125000
     37 H10         -0.4830    -1.9100    -0.5020 ha         1 9FC       0.160000
     38 H11          1.7440    -1.6030    -1.1470 h1         1 9FC       0.056700
     39 H12          1.0680    -1.4890     1.2520 hc         1 9FC       0.057700
     40 H13          2.0610    -2.8750     0.8660 hc         1 9FC       0.057700
     41 H14          3.0490    -0.3140     2.2120 hc         1 9FC       0.046700
     42 H15          2.7990    -1.8610     2.9950 hc         1 9FC       0.046700
     43 H16          5.2140    -1.4990     2.4080 hc         1 9FC       0.041200
     44 H17          4.5470    -2.9040     1.5980 hc         1 9FC       0.041200
     45 H18          4.9540    -0.1310     0.3800 hc         1 9FC       0.048200
     46 H19          5.8610    -1.5760    -0.0060 hc         1 9FC       0.048200
     47 H20          3.8580    -2.6790    -0.8860 h1         1 9FC       0.029700
     48 H21          5.1810    -1.1310    -2.2720 hn         1 9FC       0.349800
     49 H22          3.6510    -1.2500    -2.7890 hn         1 9FC       0.349800
     50 H24         -1.5950     4.8510     0.5280 hn         1 9FC       0.315500
     51 H25         -3.2970     4.8740     0.3840 hn         1 9FC       0.315500
@<TRIPOS>BOND
     1     1     4 ar  
     2     1     7 1   
     3     1     8 ar  
     4     2     3 ar  
     5     2     9 ar  
     6     2    11 1   
     7     3     4 ar  
     8     3     6 1   
     9     4    28 1   
    10     5    14 1   
    11     5    29 1   
    12     5    30 1   
    13     5    31 1   
    14     6    25 3   
    15     7    26 2   
    16     7    27 1   
    17     8     9 ar  
    18     8    10 1   
    19    10    12 1   
    20    10    32 1   
    21    11    18 1   
    22    11    33 1   
    23    12    13 ar  
    24    12    17 ar  
    25    13    14 ar  
    26    13    34 1   
    27    14    15 ar  
    28    15    16 ar  
    29    15    35 1   
    30    16    17 ar  
    31    16    36 1   
    32    17    37 1   
    33    18    19 1   
    34    18    23 1   
    35    18    38 1   
    36    19    20 1   
    37    19    39 1   
    38    19    40 1   
    39    20    21 1   
    40    20    41 1   
    41    20    42 1   
    42    21    22 1   
    43    21    43 1   
    44    21    44 1   
    45    22    23 1   
    46    22    45 1   
    47    22    46 1   
    48    23    24 1   
    49    23    47 1   
    50    24    48 1   
    51    24    49 1   
    52    27    50 1   
    53    27    51 1   
@<TRIPOS>SUBSTRUCTURE
     1 9FC         1 TEMP              0 ****  ****    0 ROOT
