@<TRIPOS>MOLECULE
9FD
   73    77     1     0     0
SMALL
No Charge or Current Charge


@<TRIPOS>ATOM
      1 C13          5.0280    -0.0660     0.5920 ce         1 9FD      -0.083200
      2 C18          0.4550     2.0000     0.3910 c3         1 9FD       0.089400
      3 C15          2.6800     0.8330     0.6430 c          1 9FD       0.593300
      4 C19         -0.5170     1.0200    -0.2720 cc         1 9FD       0.398800
      5 C20          0.1530     3.5180     0.1790 c3         1 9FD      -0.082400
      6 C21         -3.6750    -0.6450    -0.6990 ca         1 9FD      -0.174500
      7 C22         -3.9180    -2.0000    -1.0130 ca         1 9FD      -0.054000
      8 C23         -5.1960    -2.5610    -0.8720 ca         1 9FD      -0.160000
      9 C24         -6.2720    -1.7780    -0.4150 ca         1 9FD       0.018000
     10 C34         -3.6380     4.4390     1.2030 c3         1 9FD      -0.053700
     11 C33         -2.3780     4.1340     0.3310 c3         1 9FD      -0.075400
     12 C2           8.5190    -1.4850    -0.1110 ca         1 9FD      -0.097000
     13 C3           9.1410    -0.3790    -0.7120 ca         1 9FD      -0.085000
     14 C4           8.4250     0.8120    -0.8890 ca         1 9FD       0.126000
     15 C5           7.0890     0.9020    -0.4670 ca         1 9FD      -0.088000
     16 C6           6.4480    -0.2010     0.1370 ca         1 9FD      -0.031800
     17 C7           7.1760    -1.4080     0.3160 ca         1 9FD       0.010800
     18 N8           6.5930    -2.5350     0.8960 na         1 9FD      -0.001500
     19 C9           7.0420    -3.1590     2.0230 cc         1 9FD       0.394400
     20 N10          6.2920    -4.2400     2.1500 nd         1 9FD      -0.374000
     21 N11          5.4240    -4.2500     1.0700 nd         1 9FD      -0.034000
     22 N12          5.6140    -3.2270     0.2760 nc         1 9FD      -0.193800
     23 C14          4.0670     0.7810     0.1190 cf         1 9FD      -0.281200
     24 O16          2.2890     0.1210     1.5530 o          1 9FD      -0.569100
     25 N17          1.8620     1.7430     0.0170 ns         1 9FD      -0.525900
     26 C25         -6.0440    -0.4250    -0.1170 ca         1 9FD      -0.184000
     27 C26         -4.7630     0.1540    -0.2490 ca         1 9FD       0.027000
     28 N27         -0.1430     0.0690    -1.1930 na         1 9FD      -0.283500
     29 C28         -1.2480    -0.7070    -1.4840 cc         1 9FD      -0.202000
     30 C29         -2.2820    -0.1410    -0.7800 cd         1 9FD       0.300500
     31 N30         -1.7980     0.8700     0.0240 nd         1 9FD      -0.691000
     32 N31         -4.6040     1.5540    -0.0730 ns         1 9FD      -0.152000
     33 C32         -1.0000     4.1050     1.0420 c3         1 9FD      -0.067400
     34 C35         -4.9300     3.9460     0.4780 c3         1 9FD      -0.159400
     35 C36         -5.2700     2.4600     0.7370 c          1 9FD       0.607100
     36 N37         -7.5930    -2.2770    -0.2540 ns         1 9FD      -0.137000
     37 C38         -8.1440    -3.5290    -0.4560 c          1 9FD       0.645100
     38 O39         -9.4770    -3.4800    -0.1520 os         1 9FD      -0.459100
     39 O40         -7.5560    -4.5300    -0.8430 o          1 9FD      -0.524000
     40 C41        -10.2470    -4.6890    -0.2950 c3         1 9FD       0.171900
     41 O42         -6.0670     2.1280     1.6080 o          1 9FD      -0.605100
     42 C43         -3.5650     3.9260     2.6650 c3         1 9FD      -0.094100
     43 H48          4.7460    -0.7440     1.4010 ha         1 9FD       0.216000
     44 H51          0.3790     1.8130     1.4710 h1         1 9FD       0.096700
     45 H52          1.0570     4.0780     0.4490 hc         1 9FD       0.044200
     46 H53         -0.0200     3.7230    -0.8850 hc         1 9FD       0.044200
     47 H54         -3.1060    -2.6420    -1.3440 ha         1 9FD       0.118000
     48 H55         -5.3250    -3.6110    -1.1180 ha         1 9FD       0.150000
     49 H64         -3.7070     5.5320     1.2670 hc         1 9FD       0.043700
     50 H62         -2.5270     3.2000    -0.2030 hc         1 9FD       0.042200
     51 H63         -2.3280     4.8900    -0.4640 hc         1 9FD       0.042200
     52 H44          9.0810    -2.4090     0.0150 ha         1 9FD       0.137000
     53 H45         10.1750    -0.4450    -1.0410 ha         1 9FD       0.143000
     54 H46          6.5620     1.8410    -0.6010 ha         1 9FD       0.139000
     55 H47          7.8460    -2.8050     2.6550 h5         1 9FD       0.079100
     56 H49          4.3040     1.4590    -0.6980 ha         1 9FD       0.178000
     57 H50          2.2760     2.2990    -0.7220 hn         1 9FD       0.316500
     58 H56         -6.8860     0.1890     0.1910 ha         1 9FD       0.136000
     59 H57          0.7960    -0.0470    -1.5500 hn         1 9FD       0.354000
     60 H58         -1.2230    -1.5500    -2.1640 h4         1 9FD       0.166000
     61 H59         -3.8810     1.9600    -0.6520 hn         1 9FD       0.186000
     62 H61         -1.0520     3.5280     1.9720 hc         1 9FD       0.050200
     63 H60         -0.7450     5.1320     1.3320 hc         1 9FD       0.050200
     64 H65         -5.7750     4.5560     0.8180 hc         1 9FD       0.069700
     65 H66         -4.7760     4.0930    -0.5980 hc         1 9FD       0.069700
     66 H67         -8.2590    -1.5900     0.0700 hn         1 9FD       0.169000
     67 H69         -9.8550    -5.4820     0.3550 h1         1 9FD       0.049700
     68 H68        -11.2940    -4.5100    -0.0200 h1         1 9FD       0.049700
     69 H70        -10.2250    -5.0470    -1.3330 h1         1 9FD       0.049700
     70 H73         -2.7900     4.4590     3.2280 hc         1 9FD       0.041033
     71 H72         -4.5170     4.0980     3.1820 hc         1 9FD       0.041033
     72 H71         -3.3410     2.8530     2.7020 hc         1 9FD       0.041033
     73 Cl1          9.2040     2.2010    -1.6360 cl         1 9FD      -0.176000
@<TRIPOS>BOND
     1     1    16 1   
     2     1    23 2   
     3     1    43 1   
     4     2     4 1   
     5     2     5 1   
     6     2    25 1   
     7     2    44 1   
     8     3    23 1   
     9     3    24 2   
    10     3    25 1   
    11     4    28 1   
    12     4    31 2   
    13     5    33 1   
    14     5    45 1   
    15     5    46 1   
    16     6     7 ar  
    17     6    27 ar  
    18     6    30 1   
    19     7     8 ar  
    20     7    47 1   
    21     8     9 ar  
    22     8    48 1   
    23     9    26 ar  
    24     9    36 1   
    25    10    11 1   
    26    10    34 1   
    27    10    42 1   
    28    10    49 1   
    29    11    33 1   
    30    11    50 1   
    31    11    51 1   
    32    12    13 ar  
    33    12    17 ar  
    34    12    52 1   
    35    13    14 ar  
    36    13    53 1   
    37    14    15 ar  
    38    14    73 1   
    39    15    16 ar  
    40    15    54 1   
    41    16    17 ar  
    42    17    18 1   
    43    18    19 1   
    44    18    22 1   
    45    19    20 2   
    46    19    55 1   
    47    20    21 1   
    48    21    22 2   
    49    23    56 1   
    50    25    57 1   
    51    26    27 ar  
    52    26    58 1   
    53    27    32 1   
    54    28    29 1   
    55    28    59 1   
    56    29    30 2   
    57    29    60 1   
    58    30    31 1   
    59    32    35 1   
    60    32    61 1   
    61    33    62 1   
    62    33    63 1   
    63    34    35 1   
    64    34    64 1   
    65    34    65 1   
    66    35    41 2   
    67    36    37 1   
    68    36    66 1   
    69    37    38 1   
    70    37    39 2   
    71    38    40 1   
    72    40    67 1   
    73    40    68 1   
    74    40    69 1   
    75    42    70 1   
    76    42    71 1   
    77    42    72 1   
@<TRIPOS>SUBSTRUCTURE
     1 9FD         1 TEMP              0 ****  ****    0 ROOT
