@<TRIPOS>MOLECULE
9FD
   73    77     1     0     0
SMALL
abcg2


@<TRIPOS>ATOM
      1 C13          4.7650    -0.1920     0.6200 ce         1 9FD      -0.083200
      2 C18          0.5340     2.2490     0.7510 c3         1 9FD       0.089400
      3 C15          2.5910     0.9170     0.8080 c          1 9FD       0.593300
      4 C19         -0.3910     1.2640     0.0950 cc         1 9FD       0.398800
      5 C20          0.2040     3.7170     0.4440 c3         1 9FD      -0.082400
      6 C21         -3.4000    -0.5900    -0.2640 ca         1 9FD      -0.174500
      7 C22         -3.5580    -1.9630    -0.4040 ca         1 9FD      -0.054000
      8 C23         -4.7910    -2.5900    -0.3210 ca         1 9FD      -0.160000
      9 C24         -5.9210    -1.8180    -0.0640 ca         1 9FD       0.018000
     10 C34         -3.6790     4.4030     0.7010 c3         1 9FD      -0.053700
     11 C33         -2.3050     4.1050     0.0700 c3         1 9FD      -0.075400
     12 C2           8.0920    -1.6840    -0.3530 ca         1 9FD      -0.097000
     13 C3           8.8940    -0.5580    -0.4310 ca         1 9FD      -0.085000
     14 C4           8.3240     0.6830    -0.1930 ca         1 9FD       0.126000
     15 C5           6.9870     0.8120     0.1340 ca         1 9FD      -0.088000
     16 C6           6.1710    -0.3140     0.2310 ca         1 9FD      -0.031800
     17 C7           6.7530    -1.5590    -0.0220 ca         1 9FD       0.010800
     18 N8           5.9660    -2.7330     0.0400 na         1 9FD      -0.001500
     19 C9           6.1600    -3.8530     0.7450 cc         1 9FD       0.394400
     20 N10          5.1990    -4.6860     0.4540 nd         1 9FD      -0.374000
     21 N11          4.4250    -4.0580    -0.4360 nd         1 9FD      -0.034000
     22 N12          4.8690    -2.8960    -0.6970 nc         1 9FD      -0.193800
     23 C14          4.0000     0.8650     0.3480 cf         1 9FD      -0.281200
     24 O16          2.0860     0.0610     1.5200 o          1 9FD      -0.569100
     25 N17          1.9040     1.9870     0.3630 ns         1 9FD      -0.525900
     26 C25         -5.7890    -0.4360     0.0830 ca         1 9FD      -0.184000
     27 C26         -4.5510     0.1820    -0.0240 ca         1 9FD       0.027000
     28 N27         -0.0900     0.6160    -1.0470 na         1 9FD      -0.283500
     29 C28         -1.1450    -0.1840    -1.3740 cc         1 9FD      -0.202000
     30 C29         -2.0720     0.0180    -0.3900 cd         1 9FD       0.300500
     31 N30         -1.5830     0.9230     0.5220 nd         1 9FD      -0.691000
     32 N31         -4.4070     1.5710     0.1090 ns         1 9FD      -0.152000
     33 C32         -1.1290     4.1850     1.0350 c3         1 9FD      -0.067400
     34 C35         -4.8320     3.9790    -0.2170 c3         1 9FD      -0.159400
     35 C36         -5.2640     2.5260    -0.3360 c          1 9FD       0.607100
     36 N37         -7.2140    -2.3250     0.0720 ns         1 9FD      -0.137000
     37 C38         -7.6240    -3.6180     0.0120 c          1 9FD       0.645100
     38 O39         -8.9380    -3.6760     0.2200 os         1 9FD      -0.459100
     39 O40         -6.9250    -4.5840    -0.1980 o          1 9FD      -0.524000
     40 C41         -9.5390    -4.9680     0.1960 c3         1 9FD       0.171900
     41 O42         -6.3400     2.2600    -0.8470 o          1 9FD      -0.605100
     42 C43         -3.8720     3.9110     2.1390 c3         1 9FD      -0.094100
     43 H48          4.3270    -1.0170     1.1710 ha         1 9FD       0.216000
     44 H51          0.4380     2.1070     1.8310 h1         1 9FD       0.096700
     45 H52          1.0150     4.3110     0.8720 hc         1 9FD       0.044200
     46 H53          0.2320     3.8850    -0.6370 hc         1 9FD       0.044200
     47 H54         -2.6790    -2.5710    -0.5790 ha         1 9FD       0.118000
     48 H55         -4.8510    -3.6590    -0.4380 ha         1 9FD       0.150000
     49 H64         -3.7610     5.4940     0.7520 hc         1 9FD       0.043700
     50 H62         -2.3000     3.1300    -0.4180 hc         1 9FD       0.042200
     51 H63         -2.1520     4.8210    -0.7430 hc         1 9FD       0.042200
     52 H44          8.5130    -2.6580    -0.5630 ha         1 9FD       0.137000
     53 H45          9.9410    -0.6520    -0.6830 ha         1 9FD       0.143000
     54 H46          6.5790     1.7900     0.3510 ha         1 9FD       0.139000
     55 H47          6.9720    -4.0060     1.4370 h5         1 9FD       0.079100
     56 H49          4.3750     1.6990    -0.2350 ha         1 9FD       0.178000
     57 H50          2.3780     2.6770    -0.1990 hn         1 9FD       0.316500
     58 H56         -6.6690     0.1560     0.2890 ha         1 9FD       0.136000
     59 H57          0.7680     0.6980    -1.5700 hn         1 9FD       0.354000
     60 H58         -1.1500    -0.8040    -2.2550 h4         1 9FD       0.166000
     61 H59         -3.4990     1.8630     0.4430 hn         1 9FD       0.186000
     62 H61         -1.3420     3.5950     1.9300 hc         1 9FD       0.050200
     63 H60         -1.0220     5.2170     1.3790 hc         1 9FD       0.050200
     64 H65         -5.7350     4.5180     0.0780 hc         1 9FD       0.069700
     65 H66         -4.6190     4.3100    -1.2390 hc         1 9FD       0.069700
     66 H67         -7.9330    -1.6410     0.2580 hn         1 9FD       0.169000
     67 H69         -9.1220    -5.6180     0.9650 h1         1 9FD       0.049700
     68 H68        -10.5940    -4.8070     0.3970 h1         1 9FD       0.049700
     69 H70         -9.4280    -5.4450    -0.7780 h1         1 9FD       0.049700
     70 H73         -3.2380     4.4640     2.8310 hc         1 9FD       0.041033
     71 H72         -4.9050     4.0690     2.4540 hc         1 9FD       0.041033
     72 H71         -3.6470     2.8530     2.2810 hc         1 9FD       0.041033
     73 CL1          9.3060     2.1000    -0.2930 cl         1 9FD      -0.176000
@<TRIPOS>BOND
     1     1    16 1   
     2     1    23 2   
     3     1    43 1   
     4     2     4 1   
     5     2     5 1   
     6     2    25 1   
     7     2    44 1   
     8     3    23 1   
     9     3    24 2   
    10     3    25 1   
    11     4    28 1   
    12     4    31 2   
    13     5    33 1   
    14     5    45 1   
    15     5    46 1   
    16     6     7 ar  
    17     6    27 ar  
    18     6    30 1   
    19     7     8 ar  
    20     7    47 1   
    21     8     9 ar  
    22     8    48 1   
    23     9    26 ar  
    24     9    36 1   
    25    10    11 1   
    26    10    34 1   
    27    10    42 1   
    28    10    49 1   
    29    11    33 1   
    30    11    50 1   
    31    11    51 1   
    32    12    13 ar  
    33    12    17 ar  
    34    12    52 1   
    35    13    14 ar  
    36    13    53 1   
    37    14    15 ar  
    38    14    73 1   
    39    15    16 ar  
    40    15    54 1   
    41    16    17 ar  
    42    17    18 1   
    43    18    19 1   
    44    18    22 1   
    45    19    20 2   
    46    19    55 1   
    47    20    21 1   
    48    21    22 2   
    49    23    56 1   
    50    25    57 1   
    51    26    27 ar  
    52    26    58 1   
    53    27    32 1   
    54    28    29 1   
    55    28    59 1   
    56    29    30 2   
    57    29    60 1   
    58    30    31 1   
    59    32    35 1   
    60    32    61 1   
    61    33    62 1   
    62    33    63 1   
    63    34    35 1   
    64    34    64 1   
    65    34    65 1   
    66    35    41 2   
    67    36    37 1   
    68    36    66 1   
    69    37    38 1   
    70    37    39 2   
    71    38    40 1   
    72    40    67 1   
    73    40    68 1   
    74    40    69 1   
    75    42    70 1   
    76    42    71 1   
    77    42    72 1   
@<TRIPOS>SUBSTRUCTURE
     1 9FD         1 TEMP              0 ****  ****    0 ROOT
