@<TRIPOS>MOLECULE
9FE
   17    18     1     0     0
SMALL
No Charge or Current Charge


@<TRIPOS>ATOM
      1 C13         -2.6330    -1.3140     0.0290 ca         1 9FE      -0.027000
      2 O01         -3.0040     2.3120    -0.0000 o          1 9FE      -0.719000
      3 C02         -3.3500     1.1390     0.0130 c          1 9FE       0.716600
      4 O03         -4.5230     0.7930     0.0270 o          1 9FE      -0.719000
      5 C04         -2.2780     0.0680     0.0130 ca         1 9FE      -0.166600
      6 C05         -0.9030     0.4280    -0.0030 ca         1 9FE      -0.023000
      7 C06          0.0480    -0.6020    -0.0020 ca         1 9FE      -0.221900
      8 C07          1.4890    -0.5860    -0.0150 cc         1 9FE       0.311900
      9 Br           2.5730     0.9580    -0.0390 br         1 9FE      -0.047300
     10 N09          2.0000    -1.8270    -0.0090 nd         1 9FE      -0.530100
     11 N10          0.8610    -2.6450     0.0090 na         1 9FE      -0.072400
     12 C11         -0.3040    -1.9110     0.0130 ca         1 9FE      -0.049200
     13 C12         -1.6400    -2.3190     0.0290 ca         1 9FE      -0.186000
     14 H1          -3.6800    -1.6100     0.0410 ha         1 9FE       0.132000
     15 H3          -0.5890     1.4710    -0.0150 ha         1 9FE       0.144000
     16 H5          -1.9090    -3.3730     0.0410 ha         1 9FE       0.097000
     17 H4           0.9310    -3.6620     0.0170 hn         1 9FE       0.360000
@<TRIPOS>BOND
     1     1     5 ar  
     2     1    13 ar  
     3     1    14 1   
     4     2     3 1   
     5     3     4 1   
     6     3     5 1   
     7     5     6 ar  
     8     6     7 ar  
     9     6    15 1   
    10     7     8 1   
    11     7    12 ar  
    12     8     9 1   
    13     8    10 2   
    14    10    11 1   
    15    11    12 1   
    16    11    17 1   
    17    12    13 ar  
    18    13    16 1   
@<TRIPOS>SUBSTRUCTURE
     1 9FE         1 TEMP              0 ****  ****    0 ROOT
