@<TRIPOS>MOLECULE
9FE
   17    18     1     0     0
SMALL
bcc


@<TRIPOS>ATOM
      1 C13         -2.5920    -1.3090     0.0280 ca         1 9FE      -0.045000
      2 O01         -2.9790     2.3130    -0.0070 o          1 9FE      -0.824300
      3 C02         -3.3500     1.1240     0.0140 c          1 9FE       0.927200
      4 O03         -4.5240     0.7080     0.0350 o          1 9FE      -0.824300
      5 C04         -2.2530     0.0660     0.0130 ca         1 9FE      -0.166600
      6 C05         -0.9260     0.4410    -0.0020 ca         1 9FE      -0.041000
      7 C06          0.0540    -0.5560    -0.0020 ca         1 9FE      -0.221900
      8 C07          1.4720    -0.6030    -0.0140 cc         1 9FE       0.311900
      9 BR           2.6230     0.8570    -0.0370 br         1 9FE      -0.047300
     10 N09          1.9250    -1.8250    -0.0080 nd         1 9FE      -0.530100
     11 N10          0.8500    -2.6150     0.0070 na         1 9FE      -0.022100
     12 C11         -0.3080    -1.9140     0.0130 ca         1 9FE      -0.049200
     13 C12         -1.6500    -2.3100     0.0270 ca         1 9FE      -0.204000
     14 H1          -3.6400    -1.5760     0.0410 ha         1 9FE       0.150000
     15 H3          -0.6530     1.4880    -0.0150 ha         1 9FE       0.162000
     16 H5          -1.9320    -3.3550     0.0380 ha         1 9FE       0.115000
     17 H4           0.9720    -3.6140     0.0190 hn         1 9FE       0.309700
@<TRIPOS>BOND
     1     1     5 ar  
     2     1    13 ar  
     3     1    14 1   
     4     2     3 1   
     5     3     4 1   
     6     3     5 1   
     7     5     6 ar  
     8     6     7 ar  
     9     6    15 1   
    10     7     8 1   
    11     7    12 ar  
    12     8     9 1   
    13     8    10 2   
    14    10    11 1   
    15    11    12 1   
    16    11    17 1   
    17    12    13 ar  
    18    13    16 1   
@<TRIPOS>SUBSTRUCTURE
     1 9FE         1 TEMP              0 ****  ****    0 ROOT
