@<TRIPOS>MOLECULE
9FF
   18    19     1     0     0
SMALL
abcg2


@<TRIPOS>ATOM
      1 N1         -18.7430    16.9730   -29.9250 na         1 9FF      -0.205700
      2 C4         -20.4610    14.9470   -27.3800 ca         1 9FF      -0.075000
      3 C5         -20.1780    16.1010   -28.0750 ca         1 9FF      -0.137000
      4 C6         -19.2170    16.0180   -29.0890 ca         1 9FF      -0.027200
      5 C7         -17.8040    16.4190   -30.7610 cc         1 9FF      -0.200300
      6 C8         -17.6650    15.0840   -30.4660 cd         1 9FF      -0.140200
      7 C1         -18.5570    14.8050   -29.4000 ca         1 9FF      -0.127800
      8 C2         -18.8700    13.6460   -28.6700 ca         1 9FF      -0.044000
      9 C3         -19.8140    13.7280   -27.6730 ca         1 9FF      -0.147000
     10 C9         -17.1230    17.2100   -31.7710 c          1 9FF       0.599100
     11 O1         -16.2970    16.7610   -32.5340 o          1 9FF      -0.507100
     12 H1         -19.0310    17.9400   -29.9310 hn         1 9FF       0.352000
     13 H2         -21.1990    14.9740   -26.5890 ha         1 9FF       0.112000
     14 H3         -20.6760    17.0340   -27.8470 ha         1 9FF       0.116000
     15 H4         -16.9990    14.3940   -30.9590 ha         1 9FF       0.219000
     16 H5         -18.3770    12.7080   -28.8910 ha         1 9FF       0.118000
     17 H6         -20.0700    12.8470   -27.1000 ha         1 9FF       0.114000
     18 H7         -17.4120    18.2760   -31.8010 h4         1 9FF      -0.016800
@<TRIPOS>BOND
     1     1     4 1   
     2     1     5 1   
     3     1    12 1   
     4     2     3 ar  
     5     2     9 ar  
     6     2    13 1   
     7     3     4 ar  
     8     3    14 1   
     9     4     7 ar  
    10     5     6 2   
    11     5    10 1   
    12     6     7 1   
    13     6    15 1   
    14     7     8 ar  
    15     8     9 ar  
    16     8    16 1   
    17     9    17 1   
    18    10    11 2   
    19    10    18 1   
@<TRIPOS>SUBSTRUCTURE
     1 9FF         1 TEMP              0 ****  ****    0 ROOT
