@<TRIPOS>MOLECULE
9FF
   18    19     1     0     0
SMALL
No Charge or Current Charge


@<TRIPOS>ATOM
      1 N1         -18.7870    17.0280   -29.8960 na         1 9FF      -0.205700
      2 C4         -20.4890    14.8950   -27.3300 ca         1 9FF      -0.075000
      3 C5         -20.2020    16.0830   -28.0400 ca         1 9FF      -0.137000
      4 C6         -19.2450    16.0200   -29.0610 ca         1 9FF      -0.027200
      5 C7         -17.8120    16.5150   -30.7860 cc         1 9FF      -0.200300
      6 C8         -17.7080    15.1690   -30.4490 cd         1 9FF      -0.140200
      7 C1         -18.6040    14.8510   -29.3670 ca         1 9FF      -0.127800
      8 C2         -18.8600    13.6540   -28.6870 ca         1 9FF      -0.044000
      9 C3         -19.8210    13.6870   -27.6520 ca         1 9FF      -0.147000
     10 C9         -17.0330    17.1850   -31.8580 c          1 9FF       0.599100
     11 O1         -16.2070    16.6210   -32.5690 o          1 9FF      -0.507100
     12 H1         -19.1110    17.9910   -29.8670 hn         1 9FF       0.352000
     13 H2         -21.2270    14.9090   -26.5310 ha         1 9FF       0.112000
     14 H3         -20.7090    17.0150   -27.8010 ha         1 9FF       0.116000
     15 H4         -17.0410    14.4590   -30.9360 ha         1 9FF       0.219000
     16 H5         -18.3390    12.7350   -28.9460 ha         1 9FF       0.118000
     17 H6         -20.0500    12.7790   -27.0990 ha         1 9FF       0.114000
     18 H7         -17.2490    18.2690   -31.9860 h4         1 9FF      -0.016800
@<TRIPOS>BOND
     1     1     4 1   
     2     1     5 1   
     3     1    12 1   
     4     2     3 ar  
     5     2     9 ar  
     6     2    13 1   
     7     3     4 ar  
     8     3    14 1   
     9     4     7 ar  
    10     5     6 2   
    11     5    10 1   
    12     6     7 1   
    13     6    15 1   
    14     7     8 ar  
    15     8     9 ar  
    16     8    16 1   
    17     9    17 1   
    18    10    11 2   
    19    10    18 1   
@<TRIPOS>SUBSTRUCTURE
     1 9FF         1 TEMP              0 ****  ****    0 ROOT
