@<TRIPOS>MOLECULE
9FG
   25    26     1     0     0
SMALL
No Charge or Current Charge


@<TRIPOS>ATOM
      1 C12         -4.2610    -0.4540    -0.0510 cg         1 9FG       0.350000
      2 C11          1.6310     1.0940     0.3600 ca         1 9FG       0.234000
      3 C10          3.0120     0.8600     0.4400 ca         1 9FG      -0.199000
      4 C9           3.5370    -0.3720     0.0400 ca         1 9FG       0.178100
      5 N2          -5.3200    -0.9170     0.1130 n1         1 9FG      -0.456000
      6 C8           2.6850    -1.3750    -0.4410 ca         1 9FG      -0.230000
      7 C7           1.3000    -1.1450    -0.5220 ca         1 9FG      -0.032000
      8 N1          -1.7480    -0.5290     0.1320 na         1 9FG       0.062000
      9 C1          -1.6190    -1.8290     0.8130 c3         1 9FG       0.048900
     10 C5          -0.6900     0.3190    -0.2150 cc         1 9FG      -0.090000
     11 C6           0.7560     0.0920    -0.1200 ca         1 9FG      -0.112000
     12 C4          -1.2270     1.4300    -0.8050 cd         1 9FG      -0.161000
     13 C3          -2.6290     1.2870    -0.8090 cd         1 9FG      -0.110000
     14 C2          -2.9550     0.0830    -0.2350 cc         1 9FG      -0.127000
     15 F1           1.1500     2.2870     0.7760 f          1 9FG      -0.164000
     16 O1           4.8780    -0.5920     0.1200 oh         1 9FG      -0.523100
     17 H1           3.6700     1.6370     0.8170 ha         1 9FG       0.151000
     18 H2           3.0860    -2.3350    -0.7580 ha         1 9FG       0.121000
     19 H3           0.6520    -1.9270    -0.9120 ha         1 9FG       0.121000
     20 H4          -1.6480    -2.6350     0.0700 h1         1 9FG       0.059367
     21 H5          -0.6700    -1.8700     1.3610 h1         1 9FG       0.059367
     22 H6          -2.4420    -1.9610     1.5250 h1         1 9FG       0.059367
     23 H7          -0.6730     2.2690    -1.2160 ha         1 9FG       0.143000
     24 H8          -3.3360     2.0060    -1.2120 ha         1 9FG       0.144000
     25 H9           5.0590    -1.5010    -0.2000 ho         1 9FG       0.472000
@<TRIPOS>BOND
     1     1     5 3   
     2     1    14 1   
     3     2     3 ar  
     4     2    11 ar  
     5     2    15 1   
     6     3     4 ar  
     7     3    17 1   
     8     4     6 ar  
     9     4    16 1   
    10     6     7 ar  
    11     6    18 1   
    12     7    11 ar  
    13     7    19 1   
    14     8     9 1   
    15     8    10 1   
    16     8    14 1   
    17     9    20 1   
    18     9    21 1   
    19     9    22 1   
    20    10    11 1   
    21    10    12 2   
    22    12    13 1   
    23    12    23 1   
    24    13    14 2   
    25    13    24 1   
    26    16    25 1   
@<TRIPOS>SUBSTRUCTURE
     1 9FG         1 TEMP              0 ****  ****    0 ROOT
