@<TRIPOS>MOLECULE
9FG
   25    26     1     0     0
SMALL
bcc


@<TRIPOS>ATOM
      1 C12         -4.1170    -0.5170     0.0850 cg         1 9FG       0.260800
      2 C11          1.5850     0.9640     0.4330 ca         1 9FG       0.198900
      3 C10          2.9330     0.7330     0.5900 ca         1 9FG      -0.217000
      4 C9           3.4690    -0.4570     0.1020 ca         1 9FG       0.178100
      5 N2          -5.1300    -1.0090     0.3410 n1         1 9FG      -0.366800
      6 C8           2.6380    -1.3820    -0.5290 ca         1 9FG      -0.248000
      7 C7           1.2890    -1.1100    -0.6690 ca         1 9FG      -0.050000
      8 N1          -1.6840    -0.4430     0.1020 na         1 9FG      -0.010100
      9 C1          -1.5120    -1.6810     0.8360 c3         1 9FG       0.019600
     10 C5          -0.7020     0.3780    -0.3490 cc         1 9FG      -0.039300
     11 C6           0.7210     0.0710    -0.1890 ca         1 9FG      -0.112000
     12 C4          -1.2930     1.4660    -0.9710 cd         1 9FG      -0.179000
     13 C3          -2.6780     1.2910    -0.9060 cd         1 9FG      -0.128000
     14 C2          -2.8950     0.1010    -0.2380 cc         1 9FG      -0.076300
     15 F1           1.0850     2.1080     0.9180 f          1 9FG      -0.128900
     16 O1           4.7840    -0.6550     0.2670 oh         1 9FG      -0.484100
     17 H1           3.5600     1.4610     1.0890 ha         1 9FG       0.169000
     18 H2           3.0420    -2.3070    -0.9190 ha         1 9FG       0.139000
     19 H3           0.6630    -1.8310    -1.1790 ha         1 9FG       0.139000
     20 H4          -1.5190    -2.5410     0.1680 h1         1 9FG       0.059367
     21 H5          -0.5690    -1.6570     1.3730 h1         1 9FG       0.059367
     22 H6          -2.3130    -1.7900     1.5630 h1         1 9FG       0.059367
     23 H7          -0.7650     2.2820    -1.4380 ha         1 9FG       0.161000
     24 H8          -3.4460     1.9430    -1.2920 ha         1 9FG       0.162000
     25 H9           5.0530    -1.4980    -0.1160 ho         1 9FG       0.433000
@<TRIPOS>BOND
     1     1     5 3   
     2     1    14 1   
     3     2     3 ar  
     4     2    11 ar  
     5     2    15 1   
     6     3     4 ar  
     7     3    17 1   
     8     4     6 ar  
     9     4    16 1   
    10     6     7 ar  
    11     6    18 1   
    12     7    11 ar  
    13     7    19 1   
    14     8     9 1   
    15     8    10 1   
    16     8    14 1   
    17     9    20 1   
    18     9    21 1   
    19     9    22 1   
    20    10    11 1   
    21    10    12 2   
    22    12    13 1   
    23    12    23 1   
    24    13    14 2   
    25    13    24 1   
    26    16    25 1   
@<TRIPOS>SUBSTRUCTURE
     1 9FG         1 TEMP              0 ****  ****    0 ROOT
