@<TRIPOS>MOLECULE
9FH
   24    25     1     0     0
SMALL
No Charge or Current Charge


@<TRIPOS>ATOM
      1 C10          1.6020    -1.4640    -0.7280 cc         1 9FH       0.274900
      2 C15          0.4160     1.6790     0.8980 c3         1 9FH      -0.019800
      3 C01         -3.7030    -0.4160     0.9790 ca         1 9FH      -0.109500
      4 C02         -4.3040     0.4240     0.0250 ca         1 9FH      -0.138000
      5 C03         -3.5440     0.9350    -1.0400 ca         1 9FH      -0.109500
      6 C04         -2.1810     0.6080    -1.1520 ca         1 9FH      -0.117000
      7 C05         -1.5720    -0.2300    -0.1970 ca         1 9FH       0.057800
      8 C06         -2.3400    -0.7430     0.8680 ca         1 9FH      -0.117000
      9 N07         -0.2170    -0.5510    -0.3030 na         1 9FH       0.177000
     10 C08          0.7170     0.3620     0.2100 cd         1 9FH      -0.124300
     11 C09          1.9100    -0.2520    -0.0820 cc         1 9FH      -0.218600
     12 N11          0.3110    -1.6880    -0.8850 nd         1 9FH      -0.578800
     13 C12          3.2890     0.2090     0.1920 c          1 9FH       0.738600
     14 O13          4.2160    -0.5070    -0.1570 o          1 9FH      -0.727500
     15 O14          3.4660     1.2820     0.7480 o          1 9FH      -0.727500
     16 H1           2.3010    -2.2030    -1.0980 h4         1 9FH       0.038100
     17 H2           0.6720     2.5240     0.2480 hc         1 9FH       0.045700
     18 H3          -0.6390     1.7820     1.1750 hc         1 9FH       0.045700
     19 H4           0.9970     1.7800     1.8220 hc         1 9FH       0.045700
     20 H7          -4.0090     1.5840    -1.7790 ha         1 9FH       0.102000
     21 H8          -1.5940     1.0060    -1.9770 ha         1 9FH       0.131000
     22 H9          -1.8760    -1.3920     1.6070 ha         1 9FH       0.131000
     23 H5          -4.2920    -0.8120     1.8030 ha         1 9FH       0.102000
     24 H6          -5.3580     0.6770     0.1110 ha         1 9FH       0.099000
@<TRIPOS>BOND
     1     1    11 1   
     2     1    12 2   
     3     1    16 1   
     4     2    10 1   
     5     2    17 1   
     6     2    18 1   
     7     2    19 1   
     8     3     4 ar  
     9     3     8 ar  
    10     3    23 1   
    11     4     5 ar  
    12     4    24 1   
    13     5     6 ar  
    14     5    20 1   
    15     6     7 ar  
    16     6    21 1   
    17     7     8 ar  
    18     7     9 1   
    19     8    22 1   
    20     9    10 1   
    21     9    12 1   
    22    10    11 2   
    23    11    13 1   
    24    13    14 1   
    25    13    15 1   
@<TRIPOS>SUBSTRUCTURE
     1 9FH         1 TEMP              0 ****  ****    0 ROOT
