@<TRIPOS>MOLECULE
9FH
   24    25     1     0     0
SMALL
bcc


@<TRIPOS>ATOM
      1 C10          1.5020    -1.5790    -0.2950 cc         1 9FH       0.340200
      2 C15          0.5760     1.8950     0.4690 c3         1 9FH      -0.019800
      3 C01         -3.8210    -0.8330     0.6480 ca         1 9FH      -0.127500
      4 C02         -4.3680     0.2810     0.0230 ca         1 9FH      -0.156000
      5 C03         -3.5390     1.1650    -0.6520 ca         1 9FH      -0.127500
      6 C04         -2.1700     0.9410    -0.7080 ca         1 9FH      -0.135000
      7 C05         -1.6270    -0.1640    -0.0640 ca         1 9FH       0.057800
      8 C06         -2.4540    -1.0560     0.6130 ca         1 9FH      -0.135000
      9 N07         -0.2380    -0.4080    -0.1040 na         1 9FH       0.126300
     10 C08          0.7820     0.4650     0.1140 cd         1 9FH      -0.073600
     11 C09          1.9470    -0.2720    -0.0130 cc         1 9FH      -0.283900
     12 N11          0.1930    -1.6560    -0.3470 nd         1 9FH      -0.578800
     13 C12          3.3750     0.1640     0.1230 c          1 9FH       0.949200
     14 O13          4.2290    -0.7410     0.0310 o          1 9FH      -0.832800
     15 O14          3.5940     1.3780     0.3120 o          1 9FH      -0.832800
     16 H1           2.1040    -2.4580    -0.4680 h4         1 9FH       0.038100
     17 H2           0.5200     2.5270    -0.4190 hc         1 9FH       0.045700
     18 H3          -0.3410     2.0430     1.0380 hc         1 9FH       0.045700
     19 H4           1.4190     2.2420     1.0570 hc         1 9FH       0.045700
     20 H7          -3.9560     2.0290    -1.1510 ha         1 9FH       0.120000
     21 H8          -1.5360     1.6180    -1.2640 ha         1 9FH       0.149000
     22 H9          -2.0260    -1.9170     1.1080 ha         1 9FH       0.149000
     23 H5          -4.4600    -1.5290     1.1760 ha         1 9FH       0.120000
     24 H6          -5.4350     0.4570     0.0610 ha         1 9FH       0.117000
@<TRIPOS>BOND
     1     1    11 1   
     2     1    12 2   
     3     1    16 1   
     4     2    10 1   
     5     2    17 1   
     6     2    18 1   
     7     2    19 1   
     8     3     4 ar  
     9     3     8 ar  
    10     3    23 1   
    11     4     5 ar  
    12     4    24 1   
    13     5     6 ar  
    14     5    20 1   
    15     6     7 ar  
    16     6    21 1   
    17     7     8 ar  
    18     7     9 1   
    19     8    22 1   
    20     9    10 1   
    21     9    12 1   
    22    10    11 2   
    23    11    13 1   
    24    13    14 1   
    25    13    15 1   
@<TRIPOS>SUBSTRUCTURE
     1 9FH         1 TEMP              0 ****  ****    0 ROOT
