@<TRIPOS>MOLECULE
9FI
   81    86     1     0     0
SMALL
bcc


@<TRIPOS>ATOM
      1 C1          91.6770   136.3120   119.2280 c5         1 9FI       0.016500
      2 C3          92.0660   124.7500   116.6840 c6         1 9FI      -0.055700
      3 C4          91.8230   126.1630   117.2120 c6         1 9FI      -0.074400
      4 C5          92.1440   135.5120   118.0030 c6         1 9FI      -0.064900
      5 C6          91.1100   135.3120   120.2450 c6         1 9FI      -0.064900
      6 C8          93.0180   123.9950   117.6100 c6         1 9FI      -0.071400
      7 C9          92.5310   124.0040   119.0540 c6         1 9FI      -0.073400
      8 C10         90.6680   137.3670   118.8550 ca         1 9FI      -0.088300
      9 C13         91.0550   127.5980   119.1600 c3         1 9FI       0.106000
     10 C14         92.7880   137.1530   119.8140 c2         1 9FI      -0.167200
     11 C15         92.5790   124.8250   115.2500 c3         1 9FI       0.146800
     12 C16         91.1590   138.6320   119.1950 ca         1 9FI      -0.066800
     13 C17         92.4810   138.4560   119.7910 ce         1 9FI      -0.113200
     14 C18         89.4250   137.2300   118.2680 ca         1 9FI      -0.109000
     15 C20         93.7770   130.1880   118.4580 c3         1 9FI       0.040700
     16 C22         92.4790   129.4000   118.2570 c          1 9FI       0.653100
     17 C23         88.6700   138.3760   118.0180 ca         1 9FI      -0.128000
     18 C24         94.7660   129.8630   117.3350 c3         1 9FI      -0.006200
     19 C25         89.1590   139.6330   118.3570 ca         1 9FI      -0.129000
     20 C26         95.2320   128.4420   117.3190 cc         1 9FI      -0.139400
     21 C27         95.4790   127.6470   116.1510 ca         1 9FI      -0.091800
     22 C28         95.5690   127.6570   118.3860 cd         1 9FI      -0.107100
     23 C29         95.9640   126.3960   116.5920 ca         1 9FI      -0.045200
     24 C11         93.1170   134.4010   118.3680 c6         1 9FI       0.100500
     25 C12         92.0950   134.2050   120.5800 c6         1 9FI       0.100500
     26 C2          91.3340   126.1820   118.6570 c6         1 9FI      -0.077700
     27 C21         90.4100   139.7740   118.9500 ca         1 9FI      -0.106000
     28 C30         95.3380   127.8730   114.7770 ca         1 9FI      -0.074000
     29 C31         96.3100   125.3780   115.7050 ca         1 9FI      -0.150000
     30 C32         95.6810   126.8680   113.8940 ca         1 9FI      -0.161000
     31 C33         96.1650   125.6320   114.3550 ca         1 9FI      -0.114000
     32 C7          92.3070   125.4250   119.5570 c6         1 9FI      -0.071400
     33 N1          92.5570   133.5200   119.3820 n          1 9FI      -0.473800
     34 N2          92.2140   128.4650   119.1780 ns         1 9FI      -0.551900
     35 N3          93.5160   131.6080   118.4420 ns         1 9FI      -0.563900
     36 N4          92.8070   123.5110   114.6620 n8         1 9FI      -0.884800
     37 N5          96.0020   126.4350   117.9540 na         1 9FI      -0.170400
     38 O1          92.6660   131.5580   120.5260 o          1 9FI      -0.650100
     39 H1          91.1070   124.2130   116.6760 hc         1 9FI       0.056700
     40 H2          92.7590   126.7310   117.1450 hc         1 9FI       0.051700
     41 H3          91.1020   126.6750   116.5670 hc         1 9FI       0.051700
     42 H4          92.6220   136.1730   117.2770 hc         1 9FI       0.057450
     43 H5          91.2710   135.0720   117.5140 hc         1 9FI       0.057450
     44 H6          90.8290   135.8270   121.1660 hc         1 9FI       0.057450
     45 H7          90.2000   134.8660   119.8340 hc         1 9FI       0.057450
     46 H8          93.1390   122.9620   117.2730 hc         1 9FI       0.036200
     47 H9          94.0100   124.4590   117.5580 hc         1 9FI       0.036200
     48 H10         91.5930   123.4430   119.1230 hc         1 9FI       0.037200
     49 H11         93.2480   123.4860   119.6960 hc         1 9FI       0.037200
     50 H12         90.2890   128.0670   118.5420 h1         1 9FI       0.057200
     51 H13         90.6590   127.5480   120.1770 h1         1 9FI       0.057200
     52 H14         93.7090   136.7370   120.2000 ha         1 9FI       0.141000
     53 H15         93.4740   125.4640   115.2380 h1         1 9FI       0.035200
     54 H16         91.8280   125.3370   114.6420 h1         1 9FI       0.035200
     55 H17         93.1030   139.2640   120.1510 ha         1 9FI       0.144000
     56 H18         89.0370   136.2530   118.0030 ha         1 9FI       0.135000
     57 H19         94.2330   129.9360   119.4180 h1         1 9FI       0.075700
     58 H20         87.6950   138.2860   117.5580 ha         1 9FI       0.131000
     59 H21         95.6180   130.5420   117.4360 hc         1 9FI       0.060200
     60 H22         94.3000   130.1050   116.3760 hc         1 9FI       0.060200
     61 H23         88.5590   140.5120   118.1560 ha         1 9FI       0.130000
     62 H24         95.5340   127.8750   119.4430 h4         1 9FI       0.160000
     63 H25         93.3400   133.8580   117.4540 h1         1 9FI       0.047450
     64 H26         94.0680   134.8240   118.7160 h1         1 9FI       0.047450
     65 H27         91.6100   133.4860   121.2340 h1         1 9FI       0.047450
     66 H28         92.9500   134.6120   121.1360 h1         1 9FI       0.047450
     67 H29         90.3690   125.6590   118.6960 hc         1 9FI       0.050700
     68 H30         90.7860   140.7550   119.2130 ha         1 9FI       0.134000
     69 H31         94.9650   128.8220   114.4090 ha         1 9FI       0.135000
     70 H32         96.6750   124.4220   116.0600 ha         1 9FI       0.131000
     71 H33         95.5770   127.0310   112.8290 ha         1 9FI       0.130000
     72 H34         96.4240   124.8630   113.6390 ha         1 9FI       0.128000
     73 H35         93.2690   125.9510   119.5780 hc         1 9FI       0.032200
     74 H36         91.9350   125.4120   120.5850 hc         1 9FI       0.032200
     75 H37         92.8560   128.3660   119.9470 hn         1 9FI       0.312500
     76 H38         93.4360   132.0190   117.5260 hn         1 9FI       0.315500
     77 H39         93.0040   123.6230   113.6750 hn         1 9FI       0.331800
     78 H40         93.6490   123.1070   115.0530 hn         1 9FI       0.331800
     79 H42         96.2930   125.6810   118.5540 hn         1 9FI       0.301700
     80 C19         92.8940   132.1980   119.5050 c          1 9FI       0.781100
     81 O2          91.7600   129.6440   117.2970 o          1 9FI      -0.617100
@<TRIPOS>BOND
     1     1     4 1   
     2     1     5 1   
     3     1     8 1   
     4     1    10 1   
     5     2     3 1   
     6     2     6 1   
     7     2    11 1   
     8     2    39 1   
     9     3    26 1   
    10     3    40 1   
    11     3    41 1   
    12     4    24 1   
    13     4    42 1   
    14     4    43 1   
    15     5    25 1   
    16     5    44 1   
    17     5    45 1   
    18     6     7 1   
    19     6    46 1   
    20     6    47 1   
    21     7    32 1   
    22     7    48 1   
    23     7    49 1   
    24     8    12 ar  
    25     8    14 ar  
    26     9    26 1   
    27     9    34 1   
    28     9    50 1   
    29     9    51 1   
    30    10    13 2   
    31    10    52 1   
    32    11    36 1   
    33    11    53 1   
    34    11    54 1   
    35    12    13 1   
    36    12    27 ar  
    37    13    55 1   
    38    14    17 ar  
    39    14    56 1   
    40    15    16 1   
    41    15    18 1   
    42    15    35 1   
    43    15    57 1   
    44    16    34 1   
    45    16    81 2   
    46    17    19 ar  
    47    17    58 1   
    48    18    20 1   
    49    18    59 1   
    50    18    60 1   
    51    19    27 ar  
    52    19    61 1   
    53    20    21 1   
    54    20    22 2   
    55    21    23 ar  
    56    21    28 ar  
    57    22    37 1   
    58    22    62 1   
    59    23    29 ar  
    60    23    37 1   
    61    24    33 1   
    62    24    63 1   
    63    24    64 1   
    64    25    33 1   
    65    25    65 1   
    66    25    66 1   
    67    26    32 1   
    68    26    67 1   
    69    27    68 1   
    70    28    30 ar  
    71    28    69 1   
    72    29    31 ar  
    73    29    70 1   
    74    30    31 ar  
    75    30    71 1   
    76    31    72 1   
    77    32    73 1   
    78    32    74 1   
    79    33    80 1   
    80    34    75 1   
    81    35    76 1   
    82    35    80 1   
    83    36    77 1   
    84    36    78 1   
    85    37    79 1   
    86    38    80 2   
@<TRIPOS>SUBSTRUCTURE
     1 9FI         1 TEMP              0 ****  ****    0 ROOT
