@<TRIPOS>MOLECULE
9FI
   81    86     1     0     0
SMALL
No Charge or Current Charge


@<TRIPOS>ATOM
      1 C1          91.5510   136.3450   118.7220 c5         1 9FI       0.016500
      2 C3          92.2420   125.1570   115.5530 c6         1 9FI      -0.055700
      3 C4          91.8270   126.1900   116.6380 c6         1 9FI      -0.074400
      4 C5          90.6240   135.1190   118.5920 c6         1 9FI      -0.064900
      5 C6          92.3690   136.1560   120.0160 c6         1 9FI      -0.064900
      6 C8          93.4120   124.2710   116.0740 c6         1 9FI      -0.071400
      7 C9          93.0650   123.5910   117.4200 c6         1 9FI      -0.073400
      8 C10         90.7560   137.6500   118.7460 ca         1 9FI      -0.088300
      9 C13         90.9770   126.5070   119.0660 c3         1 9FI       0.106000
     10 C14         92.4400   136.5650   117.4710 c2         1 9FI      -0.217200
     11 C15         92.5930   125.8760   114.2160 c3         1 9FI       0.146800
     12 C16         91.1240   138.4680   117.6970 ca         1 9FI      -0.066800
     13 C17         92.1570   137.7740   116.9360 ce         1 9FI      -0.163200
     14 C18         89.7680   138.0660   119.6550 ca         1 9FI      -0.091000
     15 C20         92.9120   129.8750   119.3570 c3         1 9FI       0.040700
     16 C22         91.7310   128.9170   119.0200 c          1 9FI       0.586100
     17 C23         89.1680   139.3300   119.4700 ca         1 9FI      -0.110000
     18 C24         94.1440   129.6160   118.4490 c3         1 9FI      -0.006200
     19 C25         89.5550   140.1580   118.3910 ca         1 9FI      -0.111000
     20 C26         94.8770   128.3250   118.7240 cc         1 9FI      -0.139400
     21 C27         95.5500   127.5060   117.7540 ca         1 9FI      -0.091800
     22 C28         95.1230   127.7250   119.9590 cd         1 9FI      -0.157100
     23 C29         96.1390   126.4670   118.4180 ca         1 9FI      -0.045200
     24 C11         91.4070   133.7860   118.5410 c6         1 9FI       0.100500
     25 C12         93.2050   134.8560   119.9960 c6         1 9FI       0.100500
     26 C2          91.4610   125.4990   117.9840 c6         1 9FI      -0.077700
     27 C21         90.5470   139.7270   117.4870 ca         1 9FI      -0.088000
     28 C30         95.6680   127.6550   116.3630 ca         1 9FI      -0.056000
     29 C31         96.8910   125.4970   117.7420 ca         1 9FI      -0.132000
     30 C32         96.4230   126.6950   115.6560 ca         1 9FI      -0.143000
     31 C33         97.0330   125.6190   116.3430 ca         1 9FI      -0.096000
     32 C7          92.6470   124.6310   118.4860 c6         1 9FI      -0.071400
     33 N1          92.4750   133.6190   119.5810 n          1 9FI      -0.406800
     34 N2          91.9340   127.5880   119.3270 ns         1 9FI      -0.484900
     35 N3          92.4600   131.2810   119.2420 ns         1 9FI      -0.496900
     36 N4          92.8480   124.9580   113.0870 n8         1 9FI      -0.995200
     37 N5          95.8930   126.5520   119.7750 na         1 9FI      -0.220700
     38 O1          94.0580   132.2390   120.5330 o          1 9FI      -0.650100
     39 H1          91.3770   124.5120   115.3430 hc         1 9FI       0.056700
     40 H2          92.6490   126.9030   116.7930 hc         1 9FI       0.051700
     41 H3          90.9700   126.7790   116.2820 hc         1 9FI       0.051700
     42 H4          90.0000   135.2130   117.6940 hc         1 9FI       0.057450
     43 H5          89.9310   135.0910   119.4440 hc         1 9FI       0.057450
     44 H6          93.0330   137.0170   120.1700 hc         1 9FI       0.057450
     45 H7          91.6930   136.1310   120.8810 hc         1 9FI       0.057450
     46 H8          93.6670   123.4990   115.3370 hc         1 9FI       0.036200
     47 H9          94.3100   124.8870   116.2040 hc         1 9FI       0.036200
     48 H10         92.2520   122.8660   117.2710 hc         1 9FI       0.037200
     49 H11         93.9310   123.0190   117.7810 hc         1 9FI       0.037200
     50 H12         90.0180   126.9320   118.7410 h1         1 9FI       0.057200
     51 H13         90.7930   125.9670   120.0040 h1         1 9FI       0.057200
     52 H14         93.1780   135.8660   117.0740 ha         1 9FI       0.191000
     53 H15         93.4850   126.5010   114.3700 h1         1 9FI       0.035200
     54 H16         91.7600   126.5360   113.9380 h1         1 9FI       0.035200
     55 H17         92.6150   138.2180   116.0490 ha         1 9FI       0.194000
     56 H18         89.4710   137.4290   120.4850 ha         1 9FI       0.117000
     57 H19         93.1900   129.6940   120.4030 h1         1 9FI       0.075700
     58 H20         88.4010   139.6690   120.1640 ha         1 9FI       0.113000
     59 H21         94.8580   130.4390   118.5720 hc         1 9FI       0.060200
     60 H22         93.8190   129.6520   117.4030 hc         1 9FI       0.060200
     61 H23         89.0860   141.1300   118.2570 ha         1 9FI       0.112000
     62 H24         94.8280   128.0550   120.9530 h4         1 9FI       0.210000
     63 H25         90.6730   132.9730   118.6260 h1         1 9FI       0.047450
     64 H26         91.8790   133.6920   117.5520 h1         1 9FI       0.047450
     65 H27         93.6300   134.7090   120.9990 h1         1 9FI       0.047450
     66 H28         94.0540   134.9940   119.3100 h1         1 9FI       0.047450
     67 H29         90.6060   124.8310   117.8060 hc         1 9FI       0.050700
     68 H30         90.8550   140.3530   116.6520 ha         1 9FI       0.116000
     69 H31         95.2010   128.4870   115.8430 ha         1 9FI       0.117000
     70 H32         97.3570   124.6750   118.2800 ha         1 9FI       0.113000
     71 H33         96.5350   126.7830   114.5780 ha         1 9FI       0.112000
     72 H34         97.6120   124.8820   115.7920 ha         1 9FI       0.110000
     73 H35         93.5050   125.2710   118.7290 hc         1 9FI       0.032200
     74 H36         92.3690   124.1140   119.4140 hc         1 9FI       0.032200
     75 H37         92.8540   127.3390   119.6740 hn         1 9FI       0.312500
     76 H38         91.6220   131.4620   118.7040 hn         1 9FI       0.315500
     77 H39         93.1510   125.5060   112.2720 hn         1 9FI       0.387000
     78 H40         93.6660   124.3810   113.3110 hn         1 9FI       0.387000
     79 H42         96.2300   125.9200   120.4960 hn         1 9FI       0.352000
     80 C19         93.0670   132.3640   119.8300 c          1 9FI       0.647100
     81 O2          90.6770   129.3130   118.5330 o          1 9FI      -0.617100
@<TRIPOS>BOND
     1     1     4 1   
     2     1     5 1   
     3     1     8 1   
     4     1    10 1   
     5     2     3 1   
     6     2     6 1   
     7     2    11 1   
     8     2    39 1   
     9     3    26 1   
    10     3    40 1   
    11     3    41 1   
    12     4    24 1   
    13     4    42 1   
    14     4    43 1   
    15     5    25 1   
    16     5    44 1   
    17     5    45 1   
    18     6     7 1   
    19     6    46 1   
    20     6    47 1   
    21     7    32 1   
    22     7    48 1   
    23     7    49 1   
    24     8    12 ar  
    25     8    14 ar  
    26     9    26 1   
    27     9    34 1   
    28     9    50 1   
    29     9    51 1   
    30    10    13 2   
    31    10    52 1   
    32    11    36 1   
    33    11    53 1   
    34    11    54 1   
    35    12    13 1   
    36    12    27 ar  
    37    13    55 1   
    38    14    17 ar  
    39    14    56 1   
    40    15    16 1   
    41    15    18 1   
    42    15    35 1   
    43    15    57 1   
    44    16    34 1   
    45    16    81 2   
    46    17    19 ar  
    47    17    58 1   
    48    18    20 1   
    49    18    59 1   
    50    18    60 1   
    51    19    27 ar  
    52    19    61 1   
    53    20    21 1   
    54    20    22 2   
    55    21    23 ar  
    56    21    28 ar  
    57    22    37 1   
    58    22    62 1   
    59    23    29 ar  
    60    23    37 1   
    61    24    33 1   
    62    24    63 1   
    63    24    64 1   
    64    25    33 1   
    65    25    65 1   
    66    25    66 1   
    67    26    32 1   
    68    26    67 1   
    69    27    68 1   
    70    28    30 ar  
    71    28    69 1   
    72    29    31 ar  
    73    29    70 1   
    74    30    31 ar  
    75    30    71 1   
    76    31    72 1   
    77    32    73 1   
    78    32    74 1   
    79    33    80 1   
    80    34    75 1   
    81    35    76 1   
    82    35    80 1   
    83    36    77 1   
    84    36    78 1   
    85    37    79 1   
    86    38    80 2   
@<TRIPOS>SUBSTRUCTURE
     1 9FI         1 TEMP              0 ****  ****    0 ROOT
