@<TRIPOS>MOLECULE
9FJ
   42    44     1     0     0
SMALL
No Charge or Current Charge


@<TRIPOS>ATOM
      1 O9          -3.3180    -1.4420    -1.6690 o          1 9FJ      -0.723000
      2 C7          -4.3010    -0.8690    -1.2180 c          1 9FJ       0.724600
      3 O8          -5.4420    -1.2230    -1.4750 o          1 9FJ      -0.723000
      4 C6          -4.1180     0.3360    -0.3170 ca         1 9FJ      -0.202600
      5 C5          -5.2190     1.1900    -0.0480 ca         1 9FJ      -0.087000
      6 C4          -5.0670     2.3060     0.7940 ca         1 9FJ       0.218900
      7 N3          -3.8990     2.6290     1.3870 nb         1 9FJ      -0.663000
      8 C2          -2.8380     1.8190     1.1380 ca         1 9FJ       0.192900
      9 C1          -2.8850     0.6660     0.2980 ca         1 9FJ       0.326000
     10 N10         -1.7500    -0.1280     0.0850 nu         1 9FJ      -0.999200
     11 C11         -0.3480     0.2960     0.2110 c3         1 9FJ       0.252800
     12 C12          0.6610    -0.8330    -0.1880 c6         1 9FJ      -0.023400
     13 C17          2.1350    -0.3430    -0.1770 ca         1 9FJ      -0.088300
     14 C18          2.4750     0.8890    -0.7820 ca         1 9FJ      -0.075000
     15 C19          3.8020     1.3500    -0.7910 ca         1 9FJ      -0.199000
     16 C20          4.8220     0.5760    -0.2040 ca         1 9FJ       0.125100
     17 O22          6.1420     0.9780    -0.1810 os         1 9FJ      -0.349100
     18 C23          6.5730     2.2290    -0.7460 c3         1 9FJ       0.152900
     19 C21          4.5010    -0.6610     0.3700 ca         1 9FJ      -0.153000
     20 C16          3.1750    -1.1350     0.3780 ca         1 9FJ      -0.034300
     21 C15          2.9000    -2.5100     0.9930 c6         1 9FJ      -0.033100
     22 C14          1.5720    -3.1220     0.5140 c6         1 9FJ      -0.073400
     23 C13          0.4370    -2.1000     0.6900 c6         1 9FJ      -0.077400
     24 H2          -6.1950     0.9980    -0.4870 ha         1 9FJ       0.129000
     25 H3          -5.9110     2.9630     1.0010 h4         1 9FJ      -0.009900
     26 H4          -1.9130     2.1080     1.6350 h4         1 9FJ      -0.011900
     27 H5          -1.9460    -0.8610    -0.6160 hn         1 9FJ       0.556000
     28 H6          -0.1980     1.1700    -0.4330 h1         1 9FJ       0.022200
     29 H7          -0.1410     0.6020     1.2460 h1         1 9FJ       0.022200
     30 H8           0.4230    -1.0990    -1.2270 hc         1 9FJ       0.066700
     31 H9           1.7170     1.4990    -1.2640 ha         1 9FJ       0.116000
     32 H10          4.0170     2.3050    -1.2610 ha         1 9FJ       0.110000
     33 H11          6.3520     2.2680    -1.8210 h1         1 9FJ       0.035033
     34 H12          6.0740     3.0720    -0.2520 h1         1 9FJ       0.035033
     35 H13          7.6550     2.3510    -0.6170 h1         1 9FJ       0.035033
     36 H14          5.2930    -1.2620     0.8080 ha         1 9FJ       0.116000
     37 H15          3.7220    -3.1990     0.7560 hc         1 9FJ       0.043200
     38 H16          2.8860    -2.4140     2.0870 hc         1 9FJ       0.043200
     39 H17          1.6520    -3.4170    -0.5420 hc         1 9FJ       0.040700
     40 H18          1.3540    -4.0360     1.0840 hc         1 9FJ       0.040700
     41 H19          0.3670    -1.8150     1.7490 hc         1 9FJ       0.062700
     42 H20         -0.5220    -2.5730     0.4350 hc         1 9FJ       0.062700
@<TRIPOS>BOND
     1     1     2 1   
     2     2     3 1   
     3     2     4 1   
     4     4     5 ar  
     5     4     9 ar  
     6     5     6 ar  
     7     5    24 1   
     8     6     7 ar  
     9     6    25 1   
    10     7     8 ar  
    11     8     9 ar  
    12     8    26 1   
    13     9    10 1   
    14    10    11 1   
    15    10    27 1   
    16    11    12 1   
    17    11    28 1   
    18    11    29 1   
    19    12    13 1   
    20    12    23 1   
    21    12    30 1   
    22    13    14 ar  
    23    13    20 ar  
    24    14    15 ar  
    25    14    31 1   
    26    15    16 ar  
    27    15    32 1   
    28    16    17 1   
    29    16    19 ar  
    30    17    18 1   
    31    18    33 1   
    32    18    34 1   
    33    18    35 1   
    34    19    20 ar  
    35    19    36 1   
    36    20    21 1   
    37    21    22 1   
    38    21    37 1   
    39    21    38 1   
    40    22    23 1   
    41    22    39 1   
    42    22    40 1   
    43    23    41 1   
    44    23    42 1   
@<TRIPOS>SUBSTRUCTURE
     1 9FJ         1 TEMP              0 ****  ****    0 ROOT
