@<TRIPOS>MOLECULE
9FJ
   42    44     1     0     0
SMALL
abcg2


@<TRIPOS>ATOM
      1 O9          -3.3800    -1.7750    -1.2190 o          1 9FJ      -0.723000
      2 C7          -4.3600    -1.0810    -0.8510 c          1 9FJ       0.724600
      3 O8          -5.5550    -1.3690    -1.0230 o          1 9FJ      -0.723000
      4 C6          -4.0600     0.2270    -0.1350 ca         1 9FJ      -0.202600
      5 C5          -5.1090     1.0360     0.2740 ca         1 9FJ      -0.087000
      6 C4          -4.8720     2.2370     0.9240 ca         1 9FJ       0.218900
      7 N3          -3.6410     2.6660     1.1830 nb         1 9FJ      -0.663000
      8 C2          -2.6200     1.9170     0.8070 ca         1 9FJ       0.192900
      9 C1          -2.7450     0.6770     0.1440 ca         1 9FJ       0.326000
     10 N10         -1.6590    -0.0470    -0.2060 nu         1 9FJ      -0.999200
     11 C11         -0.2980     0.3500     0.0260 c3         1 9FJ       0.252800
     12 C12          0.6580    -0.7680    -0.4000 c6         1 9FJ      -0.023400
     13 C17          2.1020    -0.3150    -0.2730 ca         1 9FJ      -0.088300
     14 C18          2.5130     0.8700    -0.8800 ca         1 9FJ      -0.075000
     15 C19          3.8140     1.3430    -0.7990 ca         1 9FJ      -0.199000
     16 C20          4.7610     0.6040    -0.0950 ca         1 9FJ       0.125100
     17 O22          6.0530     0.9620     0.0580 os         1 9FJ      -0.349100
     18 C23          6.4880     2.1710    -0.5290 c3         1 9FJ       0.152900
     19 C21          4.3770    -0.6000     0.4880 ca         1 9FJ      -0.153000
     20 C16          3.0710    -1.0670     0.4040 ca         1 9FJ      -0.034300
     21 C15          2.7340    -2.4000     1.0200 c6         1 9FJ      -0.033100
     22 C14          1.5190    -3.0280     0.3590 c6         1 9FJ      -0.073400
     23 C13          0.3620    -2.0460     0.3920 c6         1 9FJ      -0.077400
     24 H2          -6.1250     0.7220     0.0800 ha         1 9FJ       0.129000
     25 H3          -5.6930     2.8690     1.2420 h4         1 9FJ      -0.009900
     26 H4          -1.6340     2.3080     1.0340 h4         1 9FJ      -0.011900
     27 H5          -1.8890    -0.8970    -0.7140 hn         1 9FJ       0.556000
     28 H6          -0.0660     1.2760    -0.5130 h1         1 9FJ       0.022200
     29 H7          -0.1270     0.5620     1.0900 h1         1 9FJ       0.022200
     30 H8           0.4730    -0.9740    -1.4630 hc         1 9FJ       0.066700
     31 H9           1.8010     1.4550    -1.4510 ha         1 9FJ       0.116000
     32 H10          4.0660     2.2720    -1.2920 ha         1 9FJ       0.110000
     33 H11          6.3780     2.1630    -1.6170 h1         1 9FJ       0.035033
     34 H12          5.9510     3.0370    -0.1310 h1         1 9FJ       0.035033
     35 H13          7.5430     2.2720    -0.2860 h1         1 9FJ       0.035033
     36 H14          5.1200    -1.1900     1.0130 ha         1 9FJ       0.116000
     37 H15          3.6010    -3.0610     0.9530 hc         1 9FJ       0.043200
     38 H16          2.5350    -2.2700     2.0900 hc         1 9FJ       0.043200
     39 H17          1.7560    -3.3000    -0.6740 hc         1 9FJ       0.040700
     40 H18          1.2460    -3.9510     0.8730 hc         1 9FJ       0.040700
     41 H19          0.1530    -1.7840     1.4360 hc         1 9FJ       0.062700
     42 H20         -0.5450    -2.5160     0.0090 hc         1 9FJ       0.062700
@<TRIPOS>BOND
     1     1     2 1   
     2     2     3 1   
     3     2     4 1   
     4     4     5 ar  
     5     4     9 ar  
     6     5     6 ar  
     7     5    24 1   
     8     6     7 ar  
     9     6    25 1   
    10     7     8 ar  
    11     8     9 ar  
    12     8    26 1   
    13     9    10 1   
    14    10    11 1   
    15    10    27 1   
    16    11    12 1   
    17    11    28 1   
    18    11    29 1   
    19    12    13 1   
    20    12    23 1   
    21    12    30 1   
    22    13    14 ar  
    23    13    20 ar  
    24    14    15 ar  
    25    14    31 1   
    26    15    16 ar  
    27    15    32 1   
    28    16    17 1   
    29    16    19 ar  
    30    17    18 1   
    31    18    33 1   
    32    18    34 1   
    33    18    35 1   
    34    19    20 ar  
    35    19    36 1   
    36    20    21 1   
    37    21    22 1   
    38    21    37 1   
    39    21    38 1   
    40    22    23 1   
    41    22    39 1   
    42    22    40 1   
    43    23    41 1   
    44    23    42 1   
@<TRIPOS>SUBSTRUCTURE
     1 9FJ         1 TEMP              0 ****  ****    0 ROOT
