@<TRIPOS>MOLECULE
9FK
   36    39     1     0     0
SMALL
No Charge or Current Charge


@<TRIPOS>ATOM
      1 O22         -6.3200    -0.0300     0.4070 o          1 9FK      -0.546500
      2 S21         -5.0880     0.2080     1.1530 sy         1 9FK       1.179600
      3 O23         -4.8210     1.4490     1.8750 o          1 9FK      -0.546500
      4 N24         -5.0950    -0.9380     2.3050 n8         1 9FK      -1.008100
      5 C19         -3.6870    -0.2620     0.1940 cc         1 9FK      -0.455500
      6 S20         -2.0980     0.3990     0.5260 ss         1 9FK       0.330000
      7 C16         -1.4190    -0.5410    -0.7990 cc         1 9FK      -0.198500
      8 C17         -2.3770    -1.3000    -1.4310 cd         1 9FK      -0.136000
      9 C18         -3.6710    -1.1400    -0.8630 cd         1 9FK       0.025000
     10 C14         -0.0370    -0.5250    -1.1820 cc         1 9FK       0.257500
     11 C15          0.9010     0.2310    -0.5490 cd         1 9FK      -0.181000
     12 N11          2.0210    -0.1040    -1.2610 na         1 9FK       0.218000
     13 N12          1.7850    -0.9880    -2.2750 nd         1 9FK      -0.174800
     14 N13          0.5010    -1.2540    -2.2140 nc         1 9FK      -0.341000
     15 C10          3.2220     0.5140    -0.9180 ca         1 9FK      -0.002200
     16 C9           3.5950     1.6890    -1.6000 ca         1 9FK      -0.092000
     17 C8           4.7930     2.3490    -1.2830 ca         1 9FK      -0.109000
     18 C7           5.6300     1.8380    -0.2790 ca         1 9FK      -0.078000
     19 C4           5.2730     0.6650     0.4110 ca         1 9FK      -0.035000
     20 C3           4.0660    -0.0080     0.0970 ca         1 9FK      -0.017000
     21 C5           6.1230     0.1640     1.4150 ca         1 9FK      -0.099000
     22 C6           5.7820    -1.0050     2.1130 ca         1 9FK      -0.097000
     23 C1           4.5890    -1.6800     1.8080 ca         1 9FK      -0.098000
     24 C2           3.7350    -1.1870     0.8070 ca         1 9FK      -0.088000
     25 H18         -4.5520    -1.6590    -1.2310 ha         1 9FK       0.151000
     26 H17         -2.1770    -1.9540    -2.2740 ha         1 9FK       0.156000
     27 H15          0.8700     0.9210     0.2830 h4         1 9FK       0.177000
     28 H9           2.9510     2.0930    -2.3800 ha         1 9FK       0.128000
     29 H8           5.0720     3.2560    -1.8150 ha         1 9FK       0.125000
     30 H7           6.5560     2.3560    -0.0390 ha         1 9FK       0.121000
     31 H5           7.0500     0.6810     1.6570 ha         1 9FK       0.118000
     32 H2           2.8190    -1.7330     0.5930 ha         1 9FK       0.130000
     33 H6           6.4410    -1.3890     2.8880 ha         1 9FK       0.119000
     34 H1           4.3260    -2.5870     2.3480 ha         1 9FK       0.120000
     35 HN1         -5.2340    -0.3620     3.1310 hn         1 9FK       0.474500
     36 HN2         -6.0240    -1.3260     2.1590 hn         1 9FK       0.474500
@<TRIPOS>BOND
     1     1     2 2   
     2     2     3 2   
     3     2     4 1   
     4     2     5 1   
     5     4    35 1   
     6     4    36 1   
     7     5     6 1   
     8     5     9 2   
     9     6     7 1   
    10     7     8 2   
    11     7    10 1   
    12     8     9 1   
    13     8    26 1   
    14     9    25 1   
    15    10    11 2   
    16    10    14 1   
    17    11    12 1   
    18    11    27 1   
    19    12    13 1   
    20    12    15 1   
    21    13    14 2   
    22    15    16 ar  
    23    15    20 ar  
    24    16    17 ar  
    25    16    28 1   
    26    17    18 ar  
    27    17    29 1   
    28    18    19 ar  
    29    18    30 1   
    30    19    20 ar  
    31    19    21 ar  
    32    20    24 ar  
    33    21    22 ar  
    34    21    31 1   
    35    22    23 ar  
    36    22    33 1   
    37    23    24 ar  
    38    23    34 1   
    39    24    32 1   
@<TRIPOS>SUBSTRUCTURE
     1 9FK         1 TEMP              0 ****  ****    0 ROOT
