@<TRIPOS>MOLECULE
9FK
   36    39     1     0     0
SMALL
abcg2


@<TRIPOS>ATOM
      1 O22         -6.5040    -0.0550    -0.5470 o          1 9FK      -0.546500
      2 S21         -5.4920     0.3510     0.4130 sy         1 9FK       1.179600
      3 O23         -5.2550     1.7690     0.6420 o          1 9FK      -0.546500
      4 N24         -5.8220    -0.4820     1.7950 n8         1 9FK      -1.008100
      5 C19         -3.9480    -0.3120    -0.0550 cc         1 9FK      -0.455500
      6 S20         -2.5220     0.6220     0.1320 ss         1 9FK       0.330000
      7 C16         -1.5710    -0.6460    -0.5300 cc         1 9FK      -0.198500
      8 C17         -2.3400    -1.7250    -0.8860 cd         1 9FK      -0.136000
      9 C18         -3.7090    -1.5340    -0.6120 cd         1 9FK       0.025000
     10 C14         -0.1390    -0.5140    -0.6820 cc         1 9FK       0.257500
     11 C15          0.7330     0.4180    -0.1750 cd         1 9FK      -0.181000
     12 N11          1.9310     0.0270    -0.6430 na         1 9FK       0.218000
     13 N12          1.8160    -1.0670    -1.3910 nd         1 9FK      -0.174800
     14 N13          0.5810    -1.3990    -1.4150 nc         1 9FK      -0.341000
     15 C10          3.1850     0.6670    -0.4670 ca         1 9FK      -0.002200
     16 C9           3.3220     1.9560    -0.9000 ca         1 9FK      -0.092000
     17 C8           4.5510     2.6240    -0.7410 ca         1 9FK      -0.109000
     18 C7           5.6120     1.9790    -0.1710 ca         1 9FK      -0.078000
     19 C4           5.4900     0.6460     0.2860 ca         1 9FK      -0.035000
     20 C3           4.2500    -0.0350     0.1540 ca         1 9FK      -0.017000
     21 C5           6.5820    -0.0210     0.8890 ca         1 9FK      -0.099000
     22 C6           6.4490    -1.2980     1.3570 ca         1 9FK      -0.097000
     23 C1           5.2120    -1.9640     1.2460 ca         1 9FK      -0.098000
     24 C2           4.1380    -1.3530     0.6580 ca         1 9FK      -0.088000
     25 H18         -4.4770    -2.2650    -0.8160 ha         1 9FK       0.151000
     26 H17         -1.9320    -2.6240    -1.3260 ha         1 9FK       0.156000
     27 H15          0.6080     1.2750     0.4650 h4         1 9FK       0.177000
     28 H9           2.4910     2.4590    -1.3760 ha         1 9FK       0.128000
     29 H8           4.6490     3.6440    -1.0870 ha         1 9FK       0.125000
     30 H7           6.5630     2.4840    -0.0600 ha         1 9FK       0.121000
     31 H5           7.5270     0.5010     0.9780 ha         1 9FK       0.118000
     32 H2           3.2020    -1.8890     0.5850 ha         1 9FK       0.130000
     33 H6           7.2900    -1.8010     1.8170 ha         1 9FK       0.119000
     34 H1           5.1080    -2.9700     1.6310 ha         1 9FK       0.120000
     35 HN1         -5.2680    -0.1710     2.5860 hn         1 9FK       0.474500
     36 HN2         -6.8120    -0.4540     2.0210 hn         1 9FK       0.474500
@<TRIPOS>BOND
     1     1     2 2   
     2     2     3 2   
     3     2     4 1   
     4     2     5 1   
     5     4    35 1   
     6     4    36 1   
     7     5     6 1   
     8     5     9 2   
     9     6     7 1   
    10     7     8 2   
    11     7    10 1   
    12     8     9 1   
    13     8    26 1   
    14     9    25 1   
    15    10    11 2   
    16    10    14 1   
    17    11    12 1   
    18    11    27 1   
    19    12    13 1   
    20    12    15 1   
    21    13    14 2   
    22    15    16 ar  
    23    15    20 ar  
    24    16    17 ar  
    25    16    28 1   
    26    17    18 ar  
    27    17    29 1   
    28    18    19 ar  
    29    18    30 1   
    30    19    20 ar  
    31    19    21 ar  
    32    20    24 ar  
    33    21    22 ar  
    34    21    31 1   
    35    22    23 ar  
    36    22    33 1   
    37    23    24 ar  
    38    23    34 1   
    39    24    32 1   
@<TRIPOS>SUBSTRUCTURE
     1 9FK         1 TEMP              0 ****  ****    0 ROOT
