@<TRIPOS>MOLECULE
9FL
   23    25     1     0     0
SMALL
No Charge or Current Charge


@<TRIPOS>ATOM
      1 C9           0.0030     1.8300    -0.0170 c5         1 9FL       0.007200
      2 C8A          1.2190     0.8940    -0.0150 ca         1 9FL      -0.084300
      3 C8           2.5900     1.1790    -0.0250 ca         1 9FL      -0.098000
      4 C7           3.4910     0.0940    -0.0200 ca         1 9FL      -0.107000
      5 C6           3.0120    -1.2370    -0.0050 ca         1 9FL      -0.114000
      6 C5           1.6260    -1.5010     0.0050 ca         1 9FL      -0.084000
      7 C4B          0.7280    -0.4140    -0.0000 cp         1 9FL      -0.040000
      8 C4A         -0.7360    -0.4090     0.0070 cp         1 9FL      -0.040000
      9 C9A         -1.2180     0.9020    -0.0020 ca         1 9FL      -0.084300
     10 C1          -2.5880     1.1970     0.0020 ca         1 9FL      -0.098000
     11 C2          -3.4960     0.1190     0.0170 ca         1 9FL      -0.107000
     12 C3          -3.0270    -1.2160     0.0270 ca         1 9FL      -0.114000
     13 C4          -1.6420    -1.4890     0.0220 ca         1 9FL      -0.084000
     14 H1           0.0100     2.4940     0.8550 hc         1 9FL       0.070700
     15 H2           0.0010     2.4770    -0.9020 hc         1 9FL       0.070700
     16 H3           2.9490     2.2060    -0.0370 ha         1 9FL       0.114000
     17 H4           4.5630     0.2830    -0.0270 ha         1 9FL       0.112000
     18 H6           3.7180    -2.0650    -0.0010 ha         1 9FL       0.112000
     19 H7           1.2580    -2.5240     0.0160 ha         1 9FL       0.115000
     20 H8          -2.9390     2.2270    -0.0060 ha         1 9FL       0.114000
     21 H9          -4.5660     0.3150     0.0210 ha         1 9FL       0.112000
     22 H11         -3.7380    -2.0390     0.0380 ha         1 9FL       0.112000
     23 H12         -1.2810    -2.5150     0.0300 ha         1 9FL       0.115000
@<TRIPOS>BOND
     1     1     2 1   
     2     1     9 1   
     3     1    14 1   
     4     1    15 1   
     5     2     3 ar  
     6     2     7 ar  
     7     3     4 ar  
     8     3    16 1   
     9     4     5 ar  
    10     4    17 1   
    11     5     6 ar  
    12     5    18 1   
    13     6     7 ar  
    14     6    19 1   
    15     7     8 1   
    16     8     9 ar  
    17     8    13 ar  
    18     9    10 ar  
    19    10    11 ar  
    20    10    20 1   
    21    11    12 ar  
    22    11    21 1   
    23    12    13 ar  
    24    12    22 1   
    25    13    23 1   
@<TRIPOS>SUBSTRUCTURE
     1 9FL         1 TEMP              0 ****  ****    0 ROOT
