@<TRIPOS>MOLECULE
9FL
   23    25     1     0     0
SMALL
abcg2


@<TRIPOS>ATOM
      1 C9           0.0040     1.8230    -0.0160 c5         1 9FL       0.007200
      2 C8A          1.1740     0.8790    -0.0150 ca         1 9FL      -0.084300
      3 C8           2.5280     1.1610    -0.0260 ca         1 9FL      -0.098000
      4 C7           3.4350     0.1060    -0.0210 ca         1 9FL      -0.107000
      5 C6           2.9900    -1.2130    -0.0050 ca         1 9FL      -0.114000
      6 C5           1.6310    -1.5020     0.0060 ca         1 9FL      -0.084000
      7 C4B          0.7260    -0.4480     0.0010 cp         1 9FL      -0.040000
      8 C4A         -0.7350    -0.4430     0.0080 cp         1 9FL      -0.040000
      9 C9A         -1.1730     0.8870    -0.0030 ca         1 9FL      -0.084300
     10 C1          -2.5260     1.1790     0.0010 ca         1 9FL      -0.098000
     11 C2          -3.4400     0.1300     0.0150 ca         1 9FL      -0.107000
     12 C3          -3.0040    -1.1920     0.0260 ca         1 9FL      -0.114000
     13 C4          -1.6470    -1.4900     0.0230 ca         1 9FL      -0.084000
     14 H1           0.0100     2.4830     0.8560 hc         1 9FL       0.070700
     15 H2           0.0020     2.4730    -0.8960 hc         1 9FL       0.070700
     16 H3           2.8810     2.1860    -0.0390 ha         1 9FL       0.114000
     17 H4           4.4980     0.3100    -0.0300 ha         1 9FL       0.112000
     18 H6           3.7100    -2.0210    -0.0010 ha         1 9FL       0.112000
     19 H7           1.2900    -2.5300     0.0190 ha         1 9FL       0.115000
     20 H8          -2.8720     2.2060    -0.0070 ha         1 9FL       0.114000
     21 H9          -4.5020     0.3420     0.0180 ha         1 9FL       0.112000
     22 H11         -3.7300    -1.9950     0.0380 ha         1 9FL       0.112000
     23 H12         -1.3140    -2.5220     0.0300 ha         1 9FL       0.115000
@<TRIPOS>BOND
     1     1     2 1   
     2     1     9 1   
     3     1    14 1   
     4     1    15 1   
     5     2     3 ar  
     6     2     7 ar  
     7     3     4 ar  
     8     3    16 1   
     9     4     5 ar  
    10     4    17 1   
    11     5     6 ar  
    12     5    18 1   
    13     6     7 ar  
    14     6    19 1   
    15     7     8 1   
    16     8     9 ar  
    17     8    13 ar  
    18     9    10 ar  
    19    10    11 ar  
    20    10    20 1   
    21    11    12 ar  
    22    11    21 1   
    23    12    13 ar  
    24    12    22 1   
    25    13    23 1   
@<TRIPOS>SUBSTRUCTURE
     1 9FL         1 TEMP              0 ****  ****    0 ROOT
