@<TRIPOS>MOLECULE
9FN
   28    29     1     0     0
SMALL
bcc


@<TRIPOS>ATOM
      1 C13          2.4790     0.4940    -0.5050 ca         1 9FN      -0.137600
      2 C15          4.1990    -0.0880    -2.0830 ca         1 9FN      -0.158000
      3 C17          4.3280    -0.8720     0.1850 ca         1 9FN      -0.106000
      4 O01          1.1610     2.4300    -0.2110 o          1 9FN      -0.547100
      5 C02          1.1940     1.2180    -0.2360 c          1 9FN       0.662300
      6 C03         -0.0730     0.4240    -0.2740 ca         1 9FN      -0.100600
      7 C04         -0.0850    -0.9490    -0.4920 ca         1 9FN      -0.032000
      8 C05         -1.2770    -1.6490    -0.5480 ca         1 9FN      -0.149000
      9 C06         -2.4870    -0.9870    -0.4090 ca         1 9FN       0.072400
     10 CL          -3.9320    -1.9130    -0.4370 cl         1 9FN      -0.081400
     11 C08         -2.4720     0.3900    -0.1950 ca         1 9FN      -0.187200
     12 C09         -1.2810     1.0880    -0.1170 ca         1 9FN      -0.023000
     13 N10         -3.7010     1.1550    -0.0510 no         1 9FN       0.320200
     14 O11         -3.7120     2.0310     0.7790 o          1 9FN      -0.211000
     15 O12         -4.6240     0.8850    -0.7780 o          1 9FN      -0.211000
     16 C14          3.0110     0.5670    -1.7880 ca         1 9FN      -0.129000
     17 C16          4.8580    -0.8090    -1.0960 ca         1 9FN      -0.147000
     18 C18          3.1380    -0.2230     0.4900 ca         1 9FN      -0.116600
     19 C19          2.5410    -0.2500     1.8800 c          1 9FN       0.918200
     20 O20          3.1130    -0.9180     2.7530 o          1 9FN      -0.805300
     21 O21          1.4970     0.4300     2.0080 o          1 9FN      -0.805300
     22 H1           4.6080    -0.0340    -3.0840 ha         1 9FN       0.109000
     23 H2           4.8410    -1.4260     0.9600 ha         1 9FN       0.149000
     24 H3           0.8400    -1.4940    -0.6200 ha         1 9FN       0.161000
     25 H4          -1.2700    -2.7200    -0.6990 ha         1 9FN       0.147000
     26 H5          -1.2920     2.1570     0.0470 ha         1 9FN       0.181000
     27 H6           2.4970     1.1250    -2.5610 ha         1 9FN       0.117000
     28 H7           5.7860    -1.3160    -1.3250 ha         1 9FN       0.110000
@<TRIPOS>BOND
     1     1     5 1   
     2     1    16 ar  
     3     1    18 ar  
     4     2    16 ar  
     5     2    17 ar  
     6     2    22 1   
     7     3    17 ar  
     8     3    18 ar  
     9     3    23 1   
    10     4     5 2   
    11     5     6 1   
    12     6     7 ar  
    13     6    12 ar  
    14     7     8 ar  
    15     7    24 1   
    16     8     9 ar  
    17     8    25 1   
    18     9    10 1   
    19     9    11 ar  
    20    11    12 ar  
    21    11    13 1   
    22    12    26 1   
    23    13    14 1   
    24    13    15 1   
    25    16    27 1   
    26    17    28 1   
    27    18    19 1   
    28    19    20 1   
    29    19    21 1   
@<TRIPOS>SUBSTRUCTURE
     1 9FN         1 TEMP              0 ****  ****    0 ROOT
