@<TRIPOS>MOLECULE
9FN
   28    29     1     0     0
SMALL
No Charge or Current Charge


@<TRIPOS>ATOM
      1 C13          2.5010     0.5710    -0.7500 ca         1 9FN      -0.137600
      2 C15          4.5600     0.0280    -1.9550 ca         1 9FN      -0.140000
      3 C17          4.1880    -0.8790     0.2680 ca         1 9FN      -0.088000
      4 O01          1.0990     2.4820    -0.9600 o          1 9FN      -0.547100
      5 C02          1.1620     1.2730    -0.7500 c          1 9FN       0.662300
      6 C03         -0.0910     0.4520    -0.5370 ca         1 9FN      -0.100600
      7 C04         -0.0840    -0.9500    -0.7060 ca         1 9FN      -0.014000
      8 C05         -1.2580    -1.6940    -0.5060 ca         1 9FN      -0.131000
      9 C06         -2.4560    -1.0570    -0.1480 ca         1 9FN       0.164000
     10 Cl          -3.8760    -2.0640     0.1400 cl         1 9FN      -0.173000
     11 C08         -2.4840     0.3460     0.0060 ca         1 9FN      -0.187200
     12 C09         -1.2990     1.0920    -0.1840 ca         1 9FN      -0.005000
     13 N10         -3.7350     1.0550     0.3740 no         1 9FN       0.700200
     14 O11         -3.6450     1.9810     1.1900 o          1 9FN      -0.401000
     15 O12         -4.7440     0.8430    -0.3110 o          1 9FN      -0.401000
     16 C14          3.3260     0.6920    -1.8890 ca         1 9FN      -0.111000
     17 C16          4.9880    -0.7620    -0.8790 ca         1 9FN      -0.129000
     18 C18          2.9450    -0.2110     0.3570 ca         1 9FN      -0.116600
     19 C19          2.1430    -0.3210     1.6390 c          1 9FN       0.707600
     20 O20          2.1010    -1.4060     2.2020 o          1 9FN      -0.700000
     21 O21          1.6090     0.6870     2.0770 o          1 9FN      -0.700000
     22 H1           5.1830     0.1230    -2.8420 ha         1 9FN       0.091000
     23 H2           4.5410    -1.4800     1.1040 ha         1 9FN       0.131000
     24 H3           0.8250    -1.4720    -0.9970 ha         1 9FN       0.143000
     25 H4          -1.2380    -2.7740    -0.6260 ha         1 9FN       0.129000
     26 H5          -1.3180     2.1750    -0.0600 ha         1 9FN       0.163000
     27 H6           2.9990     1.2940    -2.7350 ha         1 9FN       0.099000
     28 H7           5.9440    -1.2780    -0.9300 ha         1 9FN       0.092000
@<TRIPOS>BOND
     1     1     5 1   
     2     1    16 ar  
     3     1    18 ar  
     4     2    16 ar  
     5     2    17 ar  
     6     2    22 1   
     7     3    17 ar  
     8     3    18 ar  
     9     3    23 1   
    10     4     5 2   
    11     5     6 1   
    12     6     7 ar  
    13     6    12 ar  
    14     7     8 ar  
    15     7    24 1   
    16     8     9 ar  
    17     8    25 1   
    18     9    10 1   
    19     9    11 ar  
    20    11    12 ar  
    21    11    13 1   
    22    12    26 1   
    23    13    14 1   
    24    13    15 1   
    25    16    27 1   
    26    17    28 1   
    27    18    19 1   
    28    19    20 1   
    29    19    21 1   
@<TRIPOS>SUBSTRUCTURE
     1 9FN         1 TEMP              0 ****  ****    0 ROOT
