@<TRIPOS>MOLECULE
9FO
  143   142     1     0     0
SMALL
bcc


@<TRIPOS>ATOM
      1 OAA        -25.4200     2.6880     1.3770 oh         1 9FO      -0.587800
      2 CAB        -24.2830     3.5150     1.2760 c3         1 9FO       0.140400
      3 CAC        -23.2140     3.0190     2.2150 c3         1 9FO       0.137400
      4 OAD        -22.7530     1.7580     1.8000 os         1 9FO      -0.388600
      5 CAE        -21.7670     1.2360     2.6530 c3         1 9FO       0.138400
      6 CAF        -21.2970    -0.0980     2.1330 c3         1 9FO       0.138900
      7 OAG        -20.6370     0.0770     0.9060 os         1 9FO      -0.390100
      8 CAH        -20.1500    -1.1270     0.3720 c3         1 9FO       0.139400
      9 CAI        -19.4250    -0.8540    -0.9200 c3         1 9FO       0.138400
     10 OAJ        -18.2830    -0.0760    -0.6650 os         1 9FO      -0.389600
     11 CAK        -17.5460     0.2100    -1.8260 c3         1 9FO       0.138900
     12 CAL        -16.3800     1.0990    -1.4780 c3         1 9FO       0.139400
     13 OAM        -15.4830     0.4030    -0.6500 os         1 9FO      -0.389100
     14 CAN        -14.4300     1.2110    -0.1910 c3         1 9FO       0.138900
     15 CAO        -13.5190     0.4040     0.6990 c3         1 9FO       0.138400
     16 OAP        -12.8430    -0.5650    -0.0600 os         1 9FO      -0.388600
     17 CAQ        -11.9760    -1.3510     0.7160 c3         1 9FO       0.139400
     18 CAR        -11.1980    -2.2870    -0.1730 c3         1 9FO       0.138400
     19 OAS        -10.3560    -1.5450    -1.0180 os         1 9FO      -0.388100
     20 CAT         -9.5340    -2.3570    -1.8170 c3         1 9FO       0.138900
     21 CAU         -8.6780    -1.4940    -2.7090 c3         1 9FO       0.138900
     22 OAV         -7.8110    -0.7150    -1.9240 os         1 9FO      -0.388100
     23 CAW         -6.9450     0.0770    -2.6950 c3         1 9FO       0.138400
     24 CAX         -6.1050     0.9420    -1.7900 c3         1 9FO       0.139400
     25 OAY         -5.2750     0.1340    -0.9950 os         1 9FO      -0.389600
     26 CAZ         -4.4630     0.8810    -0.1260 c3         1 9FO       0.138400
     27 CBA         -3.6450    -0.0490     0.7320 c3         1 9FO       0.139400
     28 OBB         -2.7360    -0.7590    -0.0690 os         1 9FO      -0.391600
     29 CBC         -1.9750    -1.6870     0.6600 c3         1 9FO       0.138900
     30 CBD         -0.9910    -2.3680    -0.2570 c3         1 9FO       0.138900
     31 OBE         -0.0330    -1.4360    -0.6910 os         1 9FO      -0.392600
     32 CBF          0.8890    -1.9790    -1.6010 c3         1 9FO       0.138900
     33 CBG          1.9000    -0.9290    -1.9820 c3         1 9FO       0.138900
     34 OBH          2.6840    -0.6030    -0.8640 os         1 9FO      -0.391600
     35 CBI          3.5890     0.4420    -1.1090 c3         1 9FO       0.139400
     36 CBJ          4.3910     0.7170     0.1370 c3         1 9FO       0.138400
     37 OBK          5.2210    -0.3820     0.4160 os         1 9FO      -0.389600
     38 CBL          5.9910    -0.2030     1.5770 c3         1 9FO       0.139400
     39 CBM          6.9070    -1.3850     1.7660 c3         1 9FO       0.138400
     40 OBN          7.8470    -1.4270     0.7230 os         1 9FO      -0.388100
     41 CBO          8.7590    -2.4870     0.8580 c3         1 9FO       0.138900
     42 CBP          9.7020    -2.5020    -0.3170 c3         1 9FO       0.138900
     43 OBQ         10.4730    -1.3280    -0.3250 os         1 9FO      -0.388100
     44 CBR         11.4090    -1.3060    -1.3730 c3         1 9FO       0.138400
     45 CBS         12.1180     0.0230    -1.4020 c3         1 9FO       0.139400
     46 OBT         12.8840     0.1870    -0.2370 os         1 9FO      -0.388600
     47 CBU         13.5860     1.4040    -0.2210 c3         1 9FO       0.138400
     48 CBV         14.3910     1.5180     1.0470 c3         1 9FO       0.138900
     49 OBW         15.3870     0.5270     1.0700 os         1 9FO      -0.389100
     50 CBX         16.2250     0.6290     2.1930 c3         1 9FO       0.139400
     51 CBY         17.2550    -0.4700     2.1620 c3         1 9FO       0.138900
     52 OBZ         18.0890    -0.3050     1.0440 os         1 9FO      -0.389600
     53 CCA         19.1040    -1.2740     0.9760 c3         1 9FO       0.138400
     54 CCB         19.9320    -1.0570    -0.2640 c3         1 9FO       0.139400
     55 OCC         20.6000     0.1760    -0.1780 os         1 9FO      -0.390100
     56 CCD         21.3890     0.4460    -1.3090 c3         1 9FO       0.138900
     57 CCE         22.0290     1.8040    -1.1730 c3         1 9FO       0.138400
     58 OCF         22.9440     1.7970    -0.1070 os         1 9FO      -0.388600
     59 CCG         23.5650     3.0440     0.0790 c3         1 9FO       0.137400
     60 CCH         24.5080     2.9820     1.2530 c3         1 9FO       0.140400
     61 OCI         25.5690     2.1030     0.9610 oh         1 9FO      -0.587800
     62 H1         -26.0930     3.0330     0.7840 ho         1 9FO       0.400500
     63 H2         -23.8850     3.5380     0.2520 h1         1 9FO       0.024950
     64 H3         -24.5050     4.5530     1.5540 h1         1 9FO       0.024950
     65 H4         -22.3970     3.7540     2.2220 h1         1 9FO       0.025950
     66 H5         -23.6090     2.9750     3.2410 h1         1 9FO       0.025950
     67 H6         -20.9140     1.9260     2.7390 h1         1 9FO       0.027950
     68 H7         -22.1600     1.0910     3.6690 h1         1 9FO       0.027950
     69 H8         -20.6250    -0.5400     2.8830 h1         1 9FO       0.028200
     70 H9         -22.1520    -0.7830     2.0300 h1         1 9FO       0.028200
     71 H10        -19.4770    -1.6280     1.0820 h1         1 9FO       0.027950
     72 H11        -20.9690    -1.8290     0.1630 h1         1 9FO       0.027950
     73 H12        -19.1570    -1.8190    -1.3720 h1         1 9FO       0.027950
     74 H13        -20.0970    -0.3460    -1.6280 h1         1 9FO       0.027950
     75 H14        -17.1870    -0.7130    -2.3050 h1         1 9FO       0.027700
     76 H15        -18.1640     0.7340    -2.5690 h1         1 9FO       0.027700
     77 H16        -15.8940     1.4140    -2.4130 h1         1 9FO       0.027950
     78 H17        -16.7420     2.0120    -0.9850 h1         1 9FO       0.027950
     79 H18        -13.8570     1.6330    -1.0300 h1         1 9FO       0.027950
     80 H19        -14.8120     2.0610     0.3920 h1         1 9FO       0.027950
     81 H20        -12.8100     1.0930     1.1790 h1         1 9FO       0.027950
     82 H21        -14.1040    -0.0600     1.5060 h1         1 9FO       0.027950
     83 H22        -11.2800    -0.7220     1.2880 h1         1 9FO       0.027950
     84 H23        -12.5330    -1.9540     1.4460 h1         1 9FO       0.027950
     85 H24        -10.6180    -2.9620     0.4710 h1         1 9FO       0.027700
     86 H25        -11.8860    -2.9170    -0.7550 h1         1 9FO       0.027700
     87 H26         -8.8970    -3.0030    -1.1970 h1         1 9FO       0.027200
     88 H27        -10.1320    -3.0200    -2.4580 h1         1 9FO       0.027200
     89 H28         -8.1170    -2.1560    -3.3840 h1         1 9FO       0.027200
     90 H29         -9.3140    -0.8590    -3.3420 h1         1 9FO       0.027200
     91 H30         -6.2980    -0.5470    -3.3280 h1         1 9FO       0.027450
     92 H31         -7.5060     0.7390    -3.3700 h1         1 9FO       0.027450
     93 H32         -5.5140     1.6210    -2.4210 h1         1 9FO       0.027700
     94 H33         -6.7550     1.5720    -1.1660 h1         1 9FO       0.027700
     95 H34         -3.8000     1.5560    -0.6870 h1         1 9FO       0.028200
     96 H35         -5.0700     1.5120     0.5380 h1         1 9FO       0.028200
     97 H36         -3.1210     0.5530     1.4880 h1         1 9FO       0.028200
     98 H37         -4.3110    -0.7330     1.2780 h1         1 9FO       0.028200
     99 H38         -1.4360    -1.1980     1.4850 h1         1 9FO       0.028200
    100 H39         -2.6160    -2.4560     1.1130 h1         1 9FO       0.028200
    101 H40         -0.5200    -3.1930     0.2960 h1         1 9FO       0.028700
    102 H41         -1.5220    -2.8160    -1.1090 h1         1 9FO       0.028700
    103 H42          1.4020    -2.8530    -1.1730 h1         1 9FO       0.028700
    104 H43          0.3860    -2.3240    -2.5150 h1         1 9FO       0.028700
    105 H44          2.5180    -1.3270    -2.7990 h1         1 9FO       0.028200
    106 H45          1.3840    -0.0410    -2.3760 h1         1 9FO       0.028200
    107 H46          4.2640     0.1990    -1.9430 h1         1 9FO       0.028200
    108 H47          3.0600     1.3650    -1.3880 h1         1 9FO       0.028200
    109 H48          4.9830     1.6280    -0.0250 h1         1 9FO       0.028200
    110 H49          3.7120     0.9230     0.9770 h1         1 9FO       0.028200
    111 H50          6.5830     0.7220     1.5200 h1         1 9FO       0.027700
    112 H51          5.3530    -0.1170     2.4670 h1         1 9FO       0.027700
    113 H52          7.4010    -1.2820     2.7420 h1         1 9FO       0.027450
    114 H53          6.3200    -2.3140     1.8050 h1         1 9FO       0.027450
    115 H54          9.3270    -2.4020     1.7950 h1         1 9FO       0.027200
    116 H55          8.2400    -3.4560     0.8900 h1         1 9FO       0.027200
    117 H56         10.3370    -3.3950    -0.2310 h1         1 9FO       0.027200
    118 H57          9.1360    -2.6050    -1.2540 h1         1 9FO       0.027200
    119 H58         12.1380    -2.1230    -1.2670 h1         1 9FO       0.027700
    120 H59         10.9170    -1.4450    -2.3460 h1         1 9FO       0.027700
    121 H60         12.7520     0.0490    -2.3000 h1         1 9FO       0.027950
    122 H61         11.3830     0.8340    -1.5080 h1         1 9FO       0.027950
    123 H62         14.2510     1.4850    -1.0930 h1         1 9FO       0.027950
    124 H63         12.8980     2.2600    -0.2660 h1         1 9FO       0.027950
    125 H64         14.8320     2.5240     1.0790 h1         1 9FO       0.027950
    126 H65         13.7300     1.4330     1.9230 h1         1 9FO       0.027950
    127 H66         16.7220     1.6090     2.2250 h1         1 9FO       0.027950
    128 H67         15.6520     0.5350     3.1270 h1         1 9FO       0.027950
    129 H68         17.8300    -0.4260     3.0970 h1         1 9FO       0.027700
    130 H69         16.7590    -1.4520     2.1430 h1         1 9FO       0.027700
    131 H70         19.7450    -1.2360     1.8680 h1         1 9FO       0.027950
    132 H71         18.6820    -2.2880     0.9320 h1         1 9FO       0.027950
    133 H72         20.6440    -1.8900    -0.3500 h1         1 9FO       0.027950
    134 H73         19.2890    -1.0950    -1.1560 h1         1 9FO       0.027950
    135 H74         22.1630    -0.3230    -1.4440 h1         1 9FO       0.028200
    136 H75         20.7800     0.4490    -2.2240 h1         1 9FO       0.028200
    137 H76         22.5280     2.0400    -2.1230 h1         1 9FO       0.027950
    138 H77         21.2540     2.5690    -1.0220 h1         1 9FO       0.027950
    139 H78         24.1130     3.3500    -0.8250 h1         1 9FO       0.025950
    140 H79         22.8210     3.8290     0.2770 h1         1 9FO       0.025950
    141 H80         24.8620     4.0030     1.4420 h1         1 9FO       0.024950
    142 H81         23.9530     2.6680     2.1470 h1         1 9FO       0.024950
    143 H82         26.1350     2.0500     1.7360 ho         1 9FO       0.400500
@<TRIPOS>BOND
     1     1     2 1   
     2     1    62 1   
     3     2     3 1   
     4     2    63 1   
     5     2    64 1   
     6     3     4 1   
     7     3    65 1   
     8     3    66 1   
     9     4     5 1   
    10     5     6 1   
    11     5    67 1   
    12     5    68 1   
    13     6     7 1   
    14     6    69 1   
    15     6    70 1   
    16     7     8 1   
    17     8     9 1   
    18     8    71 1   
    19     8    72 1   
    20     9    10 1   
    21     9    73 1   
    22     9    74 1   
    23    10    11 1   
    24    11    12 1   
    25    11    75 1   
    26    11    76 1   
    27    12    13 1   
    28    12    77 1   
    29    12    78 1   
    30    13    14 1   
    31    14    15 1   
    32    14    79 1   
    33    14    80 1   
    34    15    16 1   
    35    15    81 1   
    36    15    82 1   
    37    16    17 1   
    38    17    18 1   
    39    17    83 1   
    40    17    84 1   
    41    18    19 1   
    42    18    85 1   
    43    18    86 1   
    44    19    20 1   
    45    20    21 1   
    46    20    87 1   
    47    20    88 1   
    48    21    22 1   
    49    21    89 1   
    50    21    90 1   
    51    22    23 1   
    52    23    24 1   
    53    23    91 1   
    54    23    92 1   
    55    24    25 1   
    56    24    93 1   
    57    24    94 1   
    58    25    26 1   
    59    26    27 1   
    60    26    95 1   
    61    26    96 1   
    62    27    28 1   
    63    27    97 1   
    64    27    98 1   
    65    28    29 1   
    66    29    30 1   
    67    29    99 1   
    68    29   100 1   
    69    30    31 1   
    70    30   101 1   
    71    30   102 1   
    72    31    32 1   
    73    32    33 1   
    74    32   103 1   
    75    32   104 1   
    76    33    34 1   
    77    33   105 1   
    78    33   106 1   
    79    34    35 1   
    80    35    36 1   
    81    35   107 1   
    82    35   108 1   
    83    36    37 1   
    84    36   109 1   
    85    36   110 1   
    86    37    38 1   
    87    38    39 1   
    88    38   111 1   
    89    38   112 1   
    90    39    40 1   
    91    39   113 1   
    92    39   114 1   
    93    40    41 1   
    94    41    42 1   
    95    41   115 1   
    96    41   116 1   
    97    42    43 1   
    98    42   117 1   
    99    42   118 1   
   100    43    44 1   
   101    44    45 1   
   102    44   119 1   
   103    44   120 1   
   104    45    46 1   
   105    45   121 1   
   106    45   122 1   
   107    46    47 1   
   108    47    48 1   
   109    47   123 1   
   110    47   124 1   
   111    48    49 1   
   112    48   125 1   
   113    48   126 1   
   114    49    50 1   
   115    50    51 1   
   116    50   127 1   
   117    50   128 1   
   118    51    52 1   
   119    51   129 1   
   120    51   130 1   
   121    52    53 1   
   122    53    54 1   
   123    53   131 1   
   124    53   132 1   
   125    54    55 1   
   126    54   133 1   
   127    54   134 1   
   128    55    56 1   
   129    56    57 1   
   130    56   135 1   
   131    56   136 1   
   132    57    58 1   
   133    57   137 1   
   134    57   138 1   
   135    58    59 1   
   136    59    60 1   
   137    59   139 1   
   138    59   140 1   
   139    60    61 1   
   140    60   141 1   
   141    60   142 1   
   142    61   143 1   
@<TRIPOS>SUBSTRUCTURE
     1 9FO         1 TEMP              0 ****  ****    0 ROOT
