@<TRIPOS>MOLECULE
9FO
  143   142     1     0     0
SMALL
No Charge or Current Charge


@<TRIPOS>ATOM
      1 OAA        -27.7630    -0.3440    -0.6010 oh         1 9FO      -0.710000
      2 CAB        -26.8730     0.3920    -1.4630 c3         1 9FO       0.163600
      3 CAC        -25.9360     1.3300    -0.6540 c3         1 9FO       0.160600
      4 OAD        -25.0090     0.5330     0.1120 os         1 9FO      -0.435000
      5 CAE        -24.0880     1.2970     0.9150 c3         1 9FO       0.161600
      6 CAF        -23.1460     0.3270     1.6690 c3         1 9FO       0.162100
      7 OAG        -22.2220    -0.2570     0.7290 os         1 9FO      -0.436500
      8 CAH        -21.2920    -1.1930     1.3100 c3         1 9FO       0.162600
      9 CAI        -20.3560    -1.7300     0.2010 c3         1 9FO       0.161600
     10 OAJ        -19.4420    -0.6870    -0.1900 os         1 9FO      -0.436000
     11 CAK        -18.5190    -1.0620    -1.2330 c3         1 9FO       0.162100
     12 CAL        -17.5940     0.1380    -1.5450 c3         1 9FO       0.162600
     13 OAM        -16.6700     0.3170    -0.4540 os         1 9FO      -0.435500
     14 CAN        -15.7550     1.4190    -0.6210 c3         1 9FO       0.162100
     15 CAO        -14.8170     1.4880     0.6080 c3         1 9FO       0.161600
     16 OAP        -13.8890     0.3860     0.5540 os         1 9FO      -0.435000
     17 CAQ        -12.9610     0.3330     1.6570 c3         1 9FO       0.162600
     18 CAR        -12.0230    -0.8830     1.4690 c3         1 9FO       0.161600
     19 OAS        -11.1070    -0.6090     0.3900 os         1 9FO      -0.434500
     20 CAT        -10.1820    -1.6770     0.1070 c3         1 9FO       0.162100
     21 CAU         -9.2560    -1.2490    -1.0570 c3         1 9FO       0.162100
     22 OAV         -8.3350    -0.2470    -0.5820 os         1 9FO      -0.434500
     23 CAW         -7.4200     0.2450    -1.5810 c3         1 9FO       0.161600
     24 CAX         -6.4870     1.2980    -0.9380 c3         1 9FO       0.162600
     25 OAY         -5.5580     0.6300    -0.0610 os         1 9FO      -0.436000
     26 CAZ         -4.6340     1.5100     0.6110 c3         1 9FO       0.161600
     27 CBA         -3.6940     0.6670     1.5060 c3         1 9FO       0.162600
     28 OBB         -2.7730    -0.0600     0.6680 os         1 9FO      -0.438000
     29 CBC         -1.8460    -0.8980     1.3860 c3         1 9FO       0.162100
     30 CBD         -0.9150    -1.6060     0.3730 c3         1 9FO       0.162100
     31 OBE          0.0050    -0.6410    -0.1770 os         1 9FO      -0.439000
     32 CBF          0.9230    -1.1790    -1.1500 c3         1 9FO       0.162100
     33 CBG          1.8540    -0.0470    -1.6450 c3         1 9FO       0.162100
     34 OBH          2.7830     0.2920    -0.5960 os         1 9FO      -0.438000
     35 CBI          3.7040     1.3490    -0.9330 c3         1 9FO       0.162600
     36 CBJ          4.6470     1.6000     0.2680 c3         1 9FO       0.161600
     37 OBK          5.5690     0.4980     0.3820 os         1 9FO      -0.436000
     38 CBL          6.5000     0.6090     1.4770 c3         1 9FO       0.162600
     39 CBM          7.4310    -0.6260     1.4760 c3         1 9FO       0.161600
     40 OBN          8.3440    -0.5270     0.3650 os         1 9FO      -0.434500
     41 CBO          9.2630    -1.6310     0.2460 c3         1 9FO       0.162100
     42 CBP         10.1860    -1.3930    -0.9730 c3         1 9FO       0.162100
     43 OBQ         11.1130    -0.3340    -0.6610 os         1 9FO      -0.434500
     44 CBR         12.0270    -0.0080    -1.7280 c3         1 9FO       0.161600
     45 CBS         12.9680     1.1260    -1.2580 c3         1 9FO       0.162600
     46 OBT         13.8970     0.5960    -0.2910 os         1 9FO      -0.435000
     47 CBU         14.8290     1.5630     0.2340 c3         1 9FO       0.161600
     48 CBV         15.7680     0.8630     1.2450 c3         1 9FO       0.162100
     49 OBW         16.6790     0.0080     0.5270 os         1 9FO      -0.435500
     50 CBX         17.6050    -0.7140     1.3640 c3         1 9FO       0.162600
     51 CBY         18.5260    -1.5790     0.4700 c3         1 9FO       0.162100
     52 OBZ         19.4470    -0.7180    -0.2290 os         1 9FO      -0.436000
     53 CCA         20.3570    -1.4070    -1.1090 c3         1 9FO       0.161600
     54 CCB         21.2910    -0.3720    -1.7810 c3         1 9FO       0.162600
     55 OCC         22.2250     0.1250    -0.8020 os         1 9FO      -0.436500
     56 CCD         23.1480     1.1120    -1.3060 c3         1 9FO       0.162100
     57 CCE         24.0930     1.5510    -0.1620 c3         1 9FO       0.161600
     58 OCF         25.0160     0.4810     0.1250 os         1 9FO      -0.435000
     59 CCG         25.9470     0.7640     1.1890 c3         1 9FO       0.160600
     60 CCH         26.8850    -0.4560     1.3890 c3         1 9FO       0.163600
     61 OCI         27.7710    -0.6380     0.2660 oh         1 9FO      -0.710000
     62 H1         -28.2780    -0.9560    -1.1780 ho         1 9FO       0.499500
     63 H2         -26.2590    -0.2950    -2.0600 h1         1 9FO       0.024950
     64 H3         -27.4550     1.0050    -2.1640 h1         1 9FO       0.024950
     65 H4         -25.3910     1.9760    -1.3550 h1         1 9FO       0.025950
     66 H5         -26.5370     1.9720     0.0030 h1         1 9FO       0.025950
     67 H6         -23.4910     1.9780     0.2930 h1         1 9FO       0.027950
     68 H7         -24.6360     1.9010     1.6510 h1         1 9FO       0.027950
     69 H8         -22.6010     0.8890     2.4380 h1         1 9FO       0.028200
     70 H9         -23.7420    -0.4470     2.1700 h1         1 9FO       0.028200
     71 H10        -20.6920    -0.7160     2.0970 h1         1 9FO       0.027950
     72 H11        -21.8330    -2.0370     1.7570 h1         1 9FO       0.027950
     73 H12        -19.8010    -2.5930     0.5940 h1         1 9FO       0.027950
     74 H13        -20.9560    -2.0700    -0.6530 h1         1 9FO       0.027950
     75 H14        -17.9110    -1.9250    -0.9300 h1         1 9FO       0.027700
     76 H15        -19.0670    -1.3330    -2.1440 h1         1 9FO       0.027700
     77 H16        -17.0480    -0.0690    -2.4750 h1         1 9FO       0.027950
     78 H17        -18.2020     1.0400    -1.7000 h1         1 9FO       0.027950
     79 H18        -15.1560     1.2990    -1.5340 h1         1 9FO       0.027950
     80 H19        -16.3090     2.3640    -0.6970 h1         1 9FO       0.027950
     81 H20        -14.2740     2.4420     0.5860 h1         1 9FO       0.027950
     82 H21        -15.4150     1.4560     1.5280 h1         1 9FO       0.027950
     83 H22        -12.3640     1.2520     1.7150 h1         1 9FO       0.027950
     84 H23        -13.5050     0.2170     2.6040 h1         1 9FO       0.027950
     85 H24        -11.4690    -1.0500     2.4020 h1         1 9FO       0.027700
     86 H25        -12.6210    -1.7800     1.2610 h1         1 9FO       0.027700
     87 H26         -9.5750    -1.9180     0.9890 h1         1 9FO       0.027200
     88 H27        -10.7270    -2.5830    -0.1900 h1         1 9FO       0.027200
     89 H28         -8.7060    -2.1300    -1.4140 h1         1 9FO       0.027200
     90 H29         -9.8630    -0.8650    -1.8870 h1         1 9FO       0.027200
     91 H30         -6.8180    -0.5720    -2.0020 h1         1 9FO       0.027450
     92 H31         -7.9750     0.7180    -2.4030 h1         1 9FO       0.027450
     93 H32         -5.9450     1.8240    -1.7350 h1         1 9FO       0.027700
     94 H33         -7.0880     2.0350    -0.3890 h1         1 9FO       0.027700
     95 H34         -4.0380     2.0830    -0.1110 h1         1 9FO       0.028200
     96 H35         -5.1810     2.2210     1.2440 h1         1 9FO       0.028200
     97 H36         -3.1440     1.3410     2.1760 h1         1 9FO       0.028200
     98 H37         -4.2900    -0.0170     2.1230 h1         1 9FO       0.028200
     99 H38         -1.2430    -0.3070     2.0880 h1         1 9FO       0.028200
    100 H39         -2.3890    -1.6600     1.9600 h1         1 9FO       0.028200
    101 H40         -0.3640    -2.4000     0.8940 h1         1 9FO       0.028700
    102 H41         -1.5180    -2.0720    -0.4170 h1         1 9FO       0.028700
    103 H42          1.5260    -1.9880    -0.7180 h1         1 9FO       0.028700
    104 H43          0.3710    -1.5850    -2.0080 h1         1 9FO       0.028700
    105 H44          2.3970    -0.3980    -2.5330 h1         1 9FO       0.028200
    106 H45          1.2520     0.8240    -1.9360 h1         1 9FO       0.028200
    107 H46          4.2990     1.0870    -1.8180 h1         1 9FO       0.028200
    108 H47          3.1560     2.2740    -1.1520 h1         1 9FO       0.028200
    109 H48          5.1940     2.5370     0.0980 h1         1 9FO       0.028200
    110 H49          4.0520     1.7140     1.1840 h1         1 9FO       0.028200
    111 H50          7.1020     1.5230     1.3920 h1         1 9FO       0.027700
    112 H51          5.9590     0.6440     2.4320 h1         1 9FO       0.027700
    113 H52          7.9880    -0.6510     2.4220 h1         1 9FO       0.027450
    114 H53          6.8280    -1.5410     1.4100 h1         1 9FO       0.027450
    115 H54          9.8720    -1.7370     1.1530 h1         1 9FO       0.027200
    116 H55          8.7110    -2.5680     0.0940 h1         1 9FO       0.027200
    117 H56         10.7290    -2.3210    -1.1920 h1         1 9FO       0.027200
    118 H57          9.5770    -1.1380    -1.8500 h1         1 9FO       0.027200
    119 H58         12.6220    -0.8830    -2.0190 h1         1 9FO       0.027700
    120 H59         11.4710     0.3360    -2.6100 h1         1 9FO       0.027700
    121 H60         13.5100     1.5200    -2.1280 h1         1 9FO       0.027950
    122 H61         12.3740     1.9430    -0.8280 h1         1 9FO       0.027950
    123 H62         15.4250     2.0140    -0.5700 h1         1 9FO       0.027950
    124 H63         14.2890     2.3670     0.7510 h1         1 9FO       0.027950
    125 H64         16.3240     1.6290     1.8000 h1         1 9FO       0.027950
    126 H65         15.1690     0.2870     1.9640 h1         1 9FO       0.027950
    127 H66         18.2150    -0.0260     1.9630 h1         1 9FO       0.027950
    128 H67         17.0590    -1.3740     2.0520 h1         1 9FO       0.027950
    129 H68         19.0750    -2.2850     1.1060 h1         1 9FO       0.027700
    130 H69         17.9150    -2.1580    -0.2350 h1         1 9FO       0.027700
    131 H70         20.9590    -2.1420    -0.5580 h1         1 9FO       0.027950
    132 H71         19.7990    -1.9400    -1.8900 h1         1 9FO       0.027950
    133 H72         21.8290    -0.8630    -2.6030 h1         1 9FO       0.027950
    134 H73         20.6900     0.4440    -2.2040 h1         1 9FO       0.027950
    135 H74         23.7400     0.7110    -2.1390 h1         1 9FO       0.028200
    136 H75         22.6000     1.9920    -1.6690 h1         1 9FO       0.028200
    137 H76         24.6400     2.4480    -0.4790 h1         1 9FO       0.027950
    138 H77         23.5000     1.8090     0.7260 h1         1 9FO       0.027950
    139 H78         26.5470     1.6550     0.9590 h1         1 9FO       0.025950
    140 H79         25.4060     0.9520     2.1260 h1         1 9FO       0.025950
    141 H80         27.4710    -0.2960     2.3040 h1         1 9FO       0.024950
    142 H81         26.2730    -1.3550     1.5450 h1         1 9FO       0.024950
    143 H82         28.2870    -1.4600     0.4400 ho         1 9FO       0.499500
@<TRIPOS>BOND
     1     1     2 1   
     2     1    62 1   
     3     2     3 1   
     4     2    63 1   
     5     2    64 1   
     6     3     4 1   
     7     3    65 1   
     8     3    66 1   
     9     4     5 1   
    10     5     6 1   
    11     5    67 1   
    12     5    68 1   
    13     6     7 1   
    14     6    69 1   
    15     6    70 1   
    16     7     8 1   
    17     8     9 1   
    18     8    71 1   
    19     8    72 1   
    20     9    10 1   
    21     9    73 1   
    22     9    74 1   
    23    10    11 1   
    24    11    12 1   
    25    11    75 1   
    26    11    76 1   
    27    12    13 1   
    28    12    77 1   
    29    12    78 1   
    30    13    14 1   
    31    14    15 1   
    32    14    79 1   
    33    14    80 1   
    34    15    16 1   
    35    15    81 1   
    36    15    82 1   
    37    16    17 1   
    38    17    18 1   
    39    17    83 1   
    40    17    84 1   
    41    18    19 1   
    42    18    85 1   
    43    18    86 1   
    44    19    20 1   
    45    20    21 1   
    46    20    87 1   
    47    20    88 1   
    48    21    22 1   
    49    21    89 1   
    50    21    90 1   
    51    22    23 1   
    52    23    24 1   
    53    23    91 1   
    54    23    92 1   
    55    24    25 1   
    56    24    93 1   
    57    24    94 1   
    58    25    26 1   
    59    26    27 1   
    60    26    95 1   
    61    26    96 1   
    62    27    28 1   
    63    27    97 1   
    64    27    98 1   
    65    28    29 1   
    66    29    30 1   
    67    29    99 1   
    68    29   100 1   
    69    30    31 1   
    70    30   101 1   
    71    30   102 1   
    72    31    32 1   
    73    32    33 1   
    74    32   103 1   
    75    32   104 1   
    76    33    34 1   
    77    33   105 1   
    78    33   106 1   
    79    34    35 1   
    80    35    36 1   
    81    35   107 1   
    82    35   108 1   
    83    36    37 1   
    84    36   109 1   
    85    36   110 1   
    86    37    38 1   
    87    38    39 1   
    88    38   111 1   
    89    38   112 1   
    90    39    40 1   
    91    39   113 1   
    92    39   114 1   
    93    40    41 1   
    94    41    42 1   
    95    41   115 1   
    96    41   116 1   
    97    42    43 1   
    98    42   117 1   
    99    42   118 1   
   100    43    44 1   
   101    44    45 1   
   102    44   119 1   
   103    44   120 1   
   104    45    46 1   
   105    45   121 1   
   106    45   122 1   
   107    46    47 1   
   108    47    48 1   
   109    47   123 1   
   110    47   124 1   
   111    48    49 1   
   112    48   125 1   
   113    48   126 1   
   114    49    50 1   
   115    50    51 1   
   116    50   127 1   
   117    50   128 1   
   118    51    52 1   
   119    51   129 1   
   120    51   130 1   
   121    52    53 1   
   122    53    54 1   
   123    53   131 1   
   124    53   132 1   
   125    54    55 1   
   126    54   133 1   
   127    54   134 1   
   128    55    56 1   
   129    56    57 1   
   130    56   135 1   
   131    56   136 1   
   132    57    58 1   
   133    57   137 1   
   134    57   138 1   
   135    58    59 1   
   136    59    60 1   
   137    59   139 1   
   138    59   140 1   
   139    60    61 1   
   140    60   141 1   
   141    60   142 1   
   142    61   143 1   
@<TRIPOS>SUBSTRUCTURE
     1 9FO         1 TEMP              0 ****  ****    0 ROOT
