@<TRIPOS>MOLECULE
9FQ
   28    29     1     0     0
SMALL
bcc


@<TRIPOS>ATOM
      1 C1          -0.6980    -0.5060     1.0600 c5         1 9FQ       0.142100
      2 C2          -0.2090    -1.6480     0.1860 c6         1 9FQ       0.123100
      3 C3           1.3170    -1.6670     0.1660 c6         1 9FQ       0.068100
      4 C4           1.8540    -0.3550    -0.4060 c6         1 9FQ       0.147100
      5 C5           1.4590     0.8060     0.5040 c6         1 9FQ      -0.046700
      6 C6           1.9230     2.1810     0.0230 c3         1 9FQ       0.160400
      7 C7          -0.0350     0.8350     0.7610 c5         1 9FQ       0.134100
      8 O8          -2.0990    -0.2520     0.8170 os         1 9FQ      -0.515500
      9 O9          -0.7550    -2.8270     0.7090 oh         1 9FQ      -0.577800
     10 O10          1.7380    -2.7400    -0.6490 oh         1 9FQ      -0.602800
     11 O11          3.2520    -0.3910    -0.5080 oh         1 9FQ      -0.570800
     12 O12          3.2800     2.3620     0.3420 oh         1 9FQ      -0.585800
     13 O13         -0.7520     1.2780    -0.4220 os         1 9FQ      -0.540500
     14 S14         -2.3000     0.9000    -0.2820 s6         1 9FQ       1.651000
     15 O15         -2.7390     0.3510    -1.5340 o          1 9FQ      -0.597300
     16 O16         -3.0410     1.9720     0.3240 o          1 9FQ      -0.597300
     17 H1          -0.6030    -0.7590     2.1170 h1         1 9FQ       0.121700
     18 H2          -0.5480    -1.4890    -0.8500 h1         1 9FQ       0.065700
     19 H3           1.6920    -1.7880     1.1920 h1         1 9FQ       0.057700
     20 H4           1.4010    -0.1970    -1.3980 h1         1 9FQ       0.059700
     21 H5           1.8990     0.6330     1.4950 hc         1 9FQ       0.083700
     22 H6           1.7430     2.2680    -1.0560 h1         1 9FQ       0.030200
     23 H7           1.3060     2.9500     0.5080 h1         1 9FQ       0.030200
     24 H8          -0.2410     1.5420     1.5690 h1         1 9FQ       0.089700
     25 H9          -0.5060    -3.5540     0.1280 ho         1 9FQ       0.425000
     26 H10          2.2510    -3.3570    -0.1220 ho         1 9FQ       0.420000
     27 H11          3.4770    -1.1480    -1.0600 ho         1 9FQ       0.416000
     28 H12          3.5390     3.2340     0.0290 ho         1 9FQ       0.409000
@<TRIPOS>BOND
     1     1     2 1   
     2     1     7 1   
     3     1     8 1   
     4     1    17 1   
     5     2     3 1   
     6     2     9 1   
     7     2    18 1   
     8     3     4 1   
     9     3    10 1   
    10     3    19 1   
    11     4     5 1   
    12     4    11 1   
    13     4    20 1   
    14     5     6 1   
    15     5     7 1   
    16     5    21 1   
    17     6    12 1   
    18     6    22 1   
    19     6    23 1   
    20     7    13 1   
    21     7    24 1   
    22     8    14 1   
    23     9    25 1   
    24    10    26 1   
    25    11    27 1   
    26    12    28 1   
    27    13    14 1   
    28    14    15 2   
    29    14    16 2   
@<TRIPOS>SUBSTRUCTURE
     1 9FQ         1 TEMP              0 ****  ****    0 ROOT
