@<TRIPOS>MOLECULE
9FQ
   28    29     1     0     0
SMALL
No Charge or Current Charge


@<TRIPOS>ATOM
      1 C1          -0.6430    -0.6100     1.0560 c5         1 9FQ       0.165300
      2 C2          -0.0340    -1.7370     0.1660 c6         1 9FQ       0.146300
      3 C3           1.5160    -1.6540     0.1720 c6         1 9FQ       0.091300
      4 C4           1.9860    -0.2720    -0.3750 c6         1 9FQ       0.170300
      5 C5           1.4900     0.8910     0.5450 c6         1 9FQ      -0.046700
      6 C6           1.8970     2.3120     0.0390 c3         1 9FQ       0.183600
      7 C7          -0.0530     0.8090     0.7560 c5         1 9FQ       0.157300
      8 O8          -2.0400    -0.4580     0.7110 os         1 9FQ      -0.538700
      9 O9          -0.4610    -3.0400     0.6120 oh         1 9FQ      -0.700000
     10 O10          2.0690    -2.7180    -0.6260 oh         1 9FQ      -0.665000
     11 O11          3.4140    -0.3190    -0.4730 oh         1 9FQ      -0.693000
     12 O12          3.2500     2.6620     0.3680 oh         1 9FQ      -0.648000
     13 O13         -0.7850     1.2250    -0.4100 os         1 9FQ      -0.563700
     14 S14         -2.3360     0.6910    -0.4250 s6         1 9FQ       1.509400
     15 O15         -2.6200     0.0500    -1.7140 o          1 9FQ      -0.526500
     16 O16         -3.2170     1.7190     0.1400 o          1 9FQ      -0.526500
     17 H1          -0.5370    -0.8800     2.1160 h1         1 9FQ       0.121700
     18 H2          -0.3650    -1.5790    -0.8720 h1         1 9FQ       0.065700
     19 H3           1.8610    -1.7560     1.2120 h1         1 9FQ       0.057700
     20 H4           1.5510    -0.1300    -1.3770 h1         1 9FQ       0.059700
     21 H5           1.9550     0.7720     1.5340 hc         1 9FQ       0.083700
     22 H6           1.7370     2.3600    -1.0470 h1         1 9FQ       0.030200
     23 H7           1.2200     3.0470     0.4970 h1         1 9FQ       0.030200
     24 H8          -0.3170     1.4890     1.5790 h1         1 9FQ       0.089700
     25 H9          -1.4470    -3.0090     0.6630 ho         1 9FQ       0.524000
     26 H10          1.4860    -3.4940    -0.4480 ho         1 9FQ       0.459000
     27 H11          3.5950    -1.2640    -0.6990 ho         1 9FQ       0.515000
     28 H12          3.4320     3.5290    -0.0570 ho         1 9FQ       0.448000
@<TRIPOS>BOND
     1     1     2 1   
     2     1     7 1   
     3     1     8 1   
     4     1    17 1   
     5     2     3 1   
     6     2     9 1   
     7     2    18 1   
     8     3     4 1   
     9     3    10 1   
    10     3    19 1   
    11     4     5 1   
    12     4    11 1   
    13     4    20 1   
    14     5     6 1   
    15     5     7 1   
    16     5    21 1   
    17     6    12 1   
    18     6    22 1   
    19     6    23 1   
    20     7    13 1   
    21     7    24 1   
    22     8    14 1   
    23     9    25 1   
    24    10    26 1   
    25    11    27 1   
    26    12    28 1   
    27    13    14 1   
    28    14    15 2   
    29    14    16 2   
@<TRIPOS>SUBSTRUCTURE
     1 9FQ         1 TEMP              0 ****  ****    0 ROOT
