@<TRIPOS>MOLECULE
9FR
   62    66     1     0     0
SMALL
abcg2


@<TRIPOS>ATOM
      1 C10          4.9780    -1.3190    -0.1350 c          1 9FR       0.578100
      2 C13          5.5900     0.9570    -0.9500 c3         1 9FR      -0.082100
      3 C15         -1.5410    -0.4700     0.4410 c6         1 9FR      -0.000600
      4 C17         -2.7470     1.7480     0.1890 ce         1 9FR      -0.213400
      5 C20         -2.8530    -1.0820     0.1250 c2         1 9FR      -0.062400
      6 C21         -5.0940    -1.3370    -0.1780 c          1 9FR       0.668300
      7 C22         -3.1570    -2.5300    -0.0130 c5         1 9FR       0.178800
      8 C24         -1.3830    -0.7020     1.9720 c3         1 9FR      -0.078100
      9 C01          0.8210    -0.2580    -0.7730 c6         1 9FR      -0.063700
     10 C02          0.3910     1.2100    -0.9480 c6         1 9FR       0.196000
     11 C03          1.5490     2.2000    -1.0290 c6         1 9FR      -0.068400
     12 C04          2.7410     1.8890    -0.1410 c6         1 9FR      -0.067400
     13 C05          3.1890     0.4560    -0.4090 c6         1 9FR      -0.042700
     14 C06          2.0980    -0.5290     0.0840 c6         1 9FR      -0.021000
     15 C07          1.8210    -0.4300     1.5820 c3         1 9FR      -0.086100
     16 C08          2.5720    -1.9530    -0.2400 c6         1 9FR      -0.068400
     17 C09          3.9320    -2.2700     0.3760 c6         1 9FR      -0.181400
     18 C11          4.6720     0.1710    -0.0090 c6         1 9FR      -0.135000
     19 O01          6.0180    -1.7210    -0.6090 o          1 9FR      -0.517100
     20 C12          5.0370     0.5790     1.4310 c3         1 9FR      -0.082100
     21 O02         -0.4080     1.6180     0.2010 os         1 9FR      -0.355100
     22 C14         -1.6110     1.0220     0.2460 c2         1 9FR       0.123900
     23 C16         -0.4250    -1.1120    -0.4310 c6         1 9FR      -0.053400
     24 C18         -4.0480     1.0680     0.1380 c          1 9FR       0.599500
     25 C19         -3.9910    -0.3900     0.0280 ce         1 9FR      -0.284400
     26 O03         -4.5640    -2.5780    -0.1990 os         1 9FR      -0.425100
     27 O04         -6.2710    -1.1530    -0.3150 o          1 9FR      -0.445000
     28 O05         -5.1030     1.6790     0.1320 o          1 9FR      -0.486100
     29 C23         -2.7640     3.2420     0.1020 c3         1 9FR      -0.034900
     30 C25         -0.4490     1.3640    -2.2190 c3         1 9FR      -0.124100
     31 H1           5.3930     0.7250    -1.9970 hc         1 9FR       0.041867
     32 H2           5.4510     2.0300    -0.8170 hc         1 9FR       0.041867
     33 H3           6.6390     0.7470    -0.7490 hc         1 9FR       0.041867
     34 H5          -2.6570    -2.9790    -0.8750 h1         1 9FR       0.081700
     35 H6          -2.8810    -3.1040     0.8760 h1         1 9FR       0.081700
     36 H7          -1.1540    -1.7480     2.1790 hc         1 9FR       0.051367
     37 H8          -0.5950    -0.0860     2.3910 hc         1 9FR       0.051367
     38 H9          -2.3090    -0.4450     2.4840 hc         1 9FR       0.051367
     39 H10          1.1120    -0.5790    -1.7800 hc         1 9FR       0.052700
     40 H11          1.9050     2.1970    -2.0630 hc         1 9FR       0.056200
     41 H12          1.1590     3.2050    -0.8450 hc         1 9FR       0.056200
     42 H13          3.5270     2.6070    -0.3790 hc         1 9FR       0.053200
     43 H14          2.5070     2.0410     0.9140 hc         1 9FR       0.053200
     44 H15          3.1940     0.3340    -1.5040 hc         1 9FR       0.042700
     45 H16          1.3660     0.5170     1.8630 hc         1 9FR       0.039700
     46 H17          1.1500    -1.2300     1.8900 hc         1 9FR       0.039700
     47 H18          2.7170    -0.5390     2.1870 hc         1 9FR       0.039700
     48 H19          1.8480    -2.6920     0.1100 hc         1 9FR       0.044700
     49 H20          4.2340    -3.2920     0.1470 hc         1 9FR       0.069200
     50 H21          6.1120     0.4760     1.5830 hc         1 9FR       0.041867
     51 H22          4.7790     1.6240     1.6010 hc         1 9FR       0.041867
     52 H23          4.5430    -0.0110     2.1990 hc         1 9FR       0.041867
     53 H25         -0.1330    -2.0580     0.0270 hc         1 9FR       0.048200
     54 H26         -0.8830    -1.3830    -1.3840 hc         1 9FR       0.048200
     55 H27         -3.2300     3.5750    -0.8270 hc         1 9FR       0.051367
     56 H28         -3.3440     3.6730     0.9200 hc         1 9FR       0.051367
     57 H29         -1.7620     3.6590     0.1430 hc         1 9FR       0.051367
     58 H30         -1.3000     0.6830    -2.2680 hc         1 9FR       0.050367
     59 H31         -0.8290     2.3840    -2.3090 hc         1 9FR       0.050367
     60 H32          0.1770     1.1640    -3.0880 hc         1 9FR       0.050367
     61 H4           2.6400    -2.0750    -1.3270 hc         1 9FR       0.044700
     62 H33          3.8780    -2.1910     1.4660 hc         1 9FR       0.069200
@<TRIPOS>BOND
     1     1    17 1   
     2     1    18 1   
     3     1    19 2   
     4     2    18 1   
     5     2    31 1   
     6     2    32 1   
     7     2    33 1   
     8     3     5 1   
     9     3     8 1   
    10     3    22 1   
    11     3    23 1   
    12     4    22 2   
    13     4    24 1   
    14     4    29 1   
    15     5     7 1   
    16     5    25 2   
    17     6    25 1   
    18     6    26 1   
    19     6    27 2   
    20     7    26 1   
    21     7    34 1   
    22     7    35 1   
    23     8    36 1   
    24     8    37 1   
    25     8    38 1   
    26     9    10 1   
    27     9    14 1   
    28     9    23 1   
    29     9    39 1   
    30    10    11 1   
    31    10    21 1   
    32    10    30 1   
    33    11    12 1   
    34    11    40 1   
    35    11    41 1   
    36    12    13 1   
    37    12    42 1   
    38    12    43 1   
    39    13    14 1   
    40    13    18 1   
    41    13    44 1   
    42    14    15 1   
    43    14    16 1   
    44    15    45 1   
    45    15    46 1   
    46    15    47 1   
    47    16    17 1   
    48    16    48 1   
    49    16    61 1   
    50    17    49 1   
    51    17    62 1   
    52    18    20 1   
    53    20    50 1   
    54    20    51 1   
    55    20    52 1   
    56    21    22 1   
    57    23    53 1   
    58    23    54 1   
    59    24    25 1   
    60    24    28 2   
    61    29    55 1   
    62    29    56 1   
    63    29    57 1   
    64    30    58 1   
    65    30    59 1   
    66    30    60 1   
@<TRIPOS>SUBSTRUCTURE
     1 9FR         1 TEMP              0 ****  ****    0 ROOT
