@<TRIPOS>MOLECULE
9FR
   62    66     1     0     0
SMALL
No Charge or Current Charge


@<TRIPOS>ATOM
      1 C10          5.1200    -1.3640     0.1270 c          1 9FR       0.578100
      2 C13          5.7820     0.8490    -0.9380 c3         1 9FR      -0.082100
      3 C15         -1.6050    -0.5070     0.3850 c6         1 9FR      -0.000600
      4 C17         -2.8490     1.7250     0.3880 ce         1 9FR      -0.213400
      5 C20         -2.9640    -1.0960     0.0470 c2         1 9FR      -0.062400
      6 C21         -5.2510    -1.3180    -0.1140 c          1 9FR       0.668300
      7 C22         -3.2940    -2.5550    -0.2210 c5         1 9FR       0.178800
      8 C24         -1.4210    -0.8590     1.8940 c3         1 9FR      -0.078100
      9 C01          0.8200    -0.2620    -0.8560 c6         1 9FR      -0.063700
     10 C02          0.4210     1.2450    -1.0610 c6         1 9FR       0.196000
     11 C03          1.6320     2.2120    -1.2200 c6         1 9FR      -0.068400
     12 C04          2.8210     1.9270    -0.2850 c6         1 9FR      -0.067400
     13 C05          3.2760     0.4450    -0.4340 c6         1 9FR      -0.042700
     14 C06          2.1210    -0.5080     0.0650 c6         1 9FR      -0.021000
     15 C07          1.7990    -0.3180     1.5770 c3         1 9FR      -0.086100
     16 C08          2.6330    -1.9900    -0.1550 c6         1 9FR      -0.068400
     17 C09          4.0050    -2.3420     0.5130 c6         1 9FR      -0.181400
     18 C11          4.7710     0.1660     0.0580 c6         1 9FR      -0.135000
     19 O01          6.2500    -1.7890    -0.0880 o          1 9FR      -0.517100
     20 C12          5.1140     0.7560     1.4720 c3         1 9FR      -0.082100
     21 O02         -0.4650     1.6770     0.0440 os         1 9FR      -0.355100
     22 C14         -1.6840     1.0300     0.3030 c2         1 9FR       0.123900
     23 C16         -0.4960    -1.1210    -0.5640 c6         1 9FR      -0.053400
     24 C18         -4.1800     1.0190     0.3960 c          1 9FR       0.599500
     25 C19         -4.1130    -0.4310     0.1150 ce         1 9FR      -0.284400
     26 O03         -4.7510    -2.5790    -0.3180 os         1 9FR      -0.425100
     27 O04         -6.4360    -1.0260    -0.1300 o          1 9FR      -0.445000
     28 O05         -5.2410     1.6070     0.5560 o          1 9FR      -0.486100
     29 C23         -2.8860     3.2530     0.3240 c3         1 9FR      -0.034900
     30 C25         -0.4570     1.4260    -2.3480 c3         1 9FR      -0.124100
     31 H1           5.6570     0.4660    -1.9580 hc         1 9FR       0.041867
     32 H2           5.6620     1.9360    -0.9790 hc         1 9FR       0.041867
     33 H3           6.8270     0.6690    -0.6550 hc         1 9FR       0.041867
     34 H5          -2.8600    -2.9190    -1.1620 h1         1 9FR       0.081700
     35 H6          -2.9700    -3.2140     0.5960 h1         1 9FR       0.081700
     36 H7          -1.0750    -1.8900     2.0360 hc         1 9FR       0.051367
     37 H8          -0.7320    -0.1810     2.4010 hc         1 9FR       0.051367
     38 H9          -2.3660    -0.7610     2.4430 hc         1 9FR       0.051367
     39 H10          1.1410    -0.5970    -1.8520 hc         1 9FR       0.052700
     40 H11          2.0020     2.1680    -2.2540 hc         1 9FR       0.056200
     41 H12          1.2950     3.2470    -1.0730 hc         1 9FR       0.056200
     42 H13          3.6270     2.6220    -0.5450 hc         1 9FR       0.053200
     43 H14          2.5510     2.1610     0.7520 hc         1 9FR       0.053200
     44 H15          3.3310     0.2620    -1.5180 hc         1 9FR       0.042700
     45 H16          1.2550     0.6110     1.7740 hc         1 9FR       0.039700
     46 H17          1.2080    -1.1580     1.9510 hc         1 9FR       0.039700
     47 H18          2.6830    -0.3030     2.2090 hc         1 9FR       0.039700
     48 H19          1.8850    -2.7070     0.2090 hc         1 9FR       0.044700
     49 H20          4.3210    -3.3750     0.3160 hc         1 9FR       0.069200
     50 H21          6.1980     0.7610     1.6420 hc         1 9FR       0.041867
     51 H22          4.7760     1.7920     1.5870 hc         1 9FR       0.041867
     52 H23          4.7020     0.1690     2.2960 hc         1 9FR       0.041867
     53 H25         -0.2330    -2.1280    -0.2220 hc         1 9FR       0.048200
     54 H26         -0.9670    -1.2940    -1.5410 hc         1 9FR       0.048200
     55 H27         -3.7640     3.6210    -0.2200 hc         1 9FR       0.051367
     56 H28         -2.9160     3.6850     1.3310 hc         1 9FR       0.051367
     57 H29         -2.0100     3.6700    -0.1860 hc         1 9FR       0.051367
     58 H30         -1.3830     0.8420    -2.3270 hc         1 9FR       0.050367
     59 H31         -0.7440     2.4750    -2.4830 hc         1 9FR       0.050367
     60 H32          0.0900     1.1200    -3.2480 hc         1 9FR       0.050367
     61 H4           2.7230    -2.1880    -1.2320 hc         1 9FR       0.044700
     62 H33          3.8670    -2.2380     1.5960 hc         1 9FR       0.069200
@<TRIPOS>BOND
     1     1    17 1   
     2     1    18 1   
     3     1    19 2   
     4     2    18 1   
     5     2    31 1   
     6     2    32 1   
     7     2    33 1   
     8     3     5 1   
     9     3     8 1   
    10     3    22 1   
    11     3    23 1   
    12     4    22 2   
    13     4    24 1   
    14     4    29 1   
    15     5     7 1   
    16     5    25 2   
    17     6    25 1   
    18     6    26 1   
    19     6    27 2   
    20     7    26 1   
    21     7    34 1   
    22     7    35 1   
    23     8    36 1   
    24     8    37 1   
    25     8    38 1   
    26     9    10 1   
    27     9    14 1   
    28     9    23 1   
    29     9    39 1   
    30    10    11 1   
    31    10    21 1   
    32    10    30 1   
    33    11    12 1   
    34    11    40 1   
    35    11    41 1   
    36    12    13 1   
    37    12    42 1   
    38    12    43 1   
    39    13    14 1   
    40    13    18 1   
    41    13    44 1   
    42    14    15 1   
    43    14    16 1   
    44    15    45 1   
    45    15    46 1   
    46    15    47 1   
    47    16    17 1   
    48    16    48 1   
    49    16    61 1   
    50    17    49 1   
    51    17    62 1   
    52    18    20 1   
    53    20    50 1   
    54    20    51 1   
    55    20    52 1   
    56    21    22 1   
    57    23    53 1   
    58    23    54 1   
    59    24    25 1   
    60    24    28 2   
    61    29    55 1   
    62    29    56 1   
    63    29    57 1   
    64    30    58 1   
    65    30    59 1   
    66    30    60 1   
@<TRIPOS>SUBSTRUCTURE
     1 9FR         1 TEMP              0 ****  ****    0 ROOT
