@<TRIPOS>MOLECULE
9FS
   53    57     1     0     0
SMALL
No Charge or Current Charge


@<TRIPOS>ATOM
      1 C14         -2.5900     1.8660     0.6290 ca         1 9FS       0.431900
      2 C5           1.1040    -0.4360     0.3670 cc         1 9FS      -0.102300
      3 C6           0.1150     0.4920     0.5220 cd         1 9FS      -0.224000
      4 C11         -4.8640     0.4550     0.0050 ca         1 9FS      -0.331300
      5 C7          -1.1230    -0.1170     0.2310 cd         1 9FS       0.320500
      6 C9          -2.4520     0.5140     0.2690 ca         1 9FS      -0.229500
      7 C10         -3.6210    -0.2080    -0.0510 ca         1 9FS       0.035000
      8 C12         -4.8530     1.8030     0.3740 ca         1 9FS       0.656900
      9 C3           0.3830    -4.0360     0.5410 c3         1 9FS      -0.104100
     10 C1           0.8930    -3.2290    -1.8360 c3         1 9FS      -0.104100
     11 N4           0.3940    -1.5780    -0.0140 na         1 9FS       0.142800
     12 N8          -0.9740    -1.3830    -0.1020 nc         1 9FS      -0.525800
     13 N13         -3.7780     2.5040     0.6830 nb         1 9FS      -0.760000
     14 N15         -5.9280     2.5790     0.4880 nv         1 9FS      -1.051900
     15 C16         -6.1650    -0.2690    -0.3360 c3         1 9FS       0.368300
     16 F17         -7.0450    -0.2290     0.6910 f          1 9FS      -0.116667
     17 F18         -6.7780     0.2830    -1.4080 f          1 9FS      -0.116667
     18 F19         -5.9790    -1.5760    -0.6300 f          1 9FS      -0.116667
     19 C20          2.5610    -0.3010     0.5370 cx         1 9FS      -0.061400
     20 C21          3.4320    -0.2860    -0.7010 cx         1 9FS      -0.111200
     21 C22          3.2500     0.9750     0.1000 cx         1 9FS      -0.111200
     22 C23          4.5900     1.2560     0.7890 c5         1 9FS       0.190300
     23 N24          5.4810     0.5880    -0.2010 n3         1 9FS      -0.721600
     24 C25          4.8780    -0.7450    -0.4810 c5         1 9FS       0.190300
     25 C26          6.8870     0.4830     0.2830 cy         1 9FS       0.112500
     26 C27          7.7430     1.7900     0.3620 cy         1 9FS       0.144600
     27 O28          8.9080     0.9720    -0.0300 oq         1 9FS      -0.446000
     28 C29          7.9930     0.0560    -0.7380 cy         1 9FS       0.144600
     29 H1          -1.7240     2.4730     0.8870 h4         1 9FS       0.022100
     30 H2           0.2700     1.5220     0.8180 ha         1 9FS       0.143000
     31 H3          -3.5580    -1.2570    -0.3360 ha         1 9FS       0.148000
     32 H4          -0.6820    -4.1810     0.3230 hc         1 9FS       0.050700
     33 H5           0.9040    -4.9820     0.3520 hc         1 9FS       0.050700
     34 H6           0.4880    -3.7960     1.6060 hc         1 9FS       0.050700
     35 H7          -0.1510    -3.3180    -2.1590 hc         1 9FS       0.050700
     36 H8           1.3690    -2.4370    -2.4270 hc         1 9FS       0.050700
     37 H9           1.4040    -4.1730    -2.0580 hc         1 9FS       0.050700
     38 H10          2.0460    -2.8520    -0.0790 h1         1 9FS       0.054700
     39 H11         -6.8070     2.1180     0.6770 hn         1 9FS       0.488000
     40 H12         -5.7600     3.4470     0.9790 hn         1 9FS       0.488000
     41 H13          2.9380    -0.8140     1.4200 hc         1 9FS       0.084700
     42 H14          2.9750    -0.3380    -1.6860 hc         1 9FS       0.105200
     43 H15          2.6720     1.7820    -0.3420 hc         1 9FS       0.105200
     44 H16          4.8100     2.3280     0.8840 h1         1 9FS       0.044700
     45 H17          4.6620     0.7990     1.7870 h1         1 9FS       0.044700
     46 H19          4.9840    -1.4360     0.3680 h1         1 9FS       0.044700
     47 H20          5.3200    -1.2190    -1.3690 h1         1 9FS       0.044700
     48 H21          6.9530    -0.0970     1.2120 h1         1 9FS       0.039700
     49 H22          7.5010     2.5450    -0.3950 h1         1 9FS       0.056700
     50 H23          7.8480     2.2300     1.3600 h1         1 9FS       0.056700
     51 H24          8.3110    -0.9910    -0.6840 h1         1 9FS       0.056700
     52 H25          7.8130     0.3760    -1.7720 h1         1 9FS       0.056700
     53 C2           0.9790    -2.9050    -0.3290 c3         1 9FS       0.105300
@<TRIPOS>BOND
     1     1     6 ar  
     2     1    13 ar  
     3     1    29 1   
     4     2     3 2   
     5     2    11 1   
     6     2    19 1   
     7     3     5 1   
     8     3    30 1   
     9     4     7 ar  
    10     4     8 ar  
    11     4    15 1   
    12     5     6 1   
    13     5    12 2   
    14     6     7 ar  
    15     7    31 1   
    16     8    13 ar  
    17     8    14 1   
    18     9    32 1   
    19     9    33 1   
    20     9    34 1   
    21     9    53 1   
    22    10    35 1   
    23    10    36 1   
    24    10    37 1   
    25    10    53 1   
    26    11    12 1   
    27    11    53 1   
    28    14    39 1   
    29    14    40 1   
    30    15    16 1   
    31    15    17 1   
    32    15    18 1   
    33    19    20 1   
    34    19    21 1   
    35    19    41 1   
    36    20    21 1   
    37    20    24 1   
    38    20    42 1   
    39    21    22 1   
    40    21    43 1   
    41    22    23 1   
    42    22    44 1   
    43    22    45 1   
    44    23    24 1   
    45    23    25 1   
    46    24    46 1   
    47    24    47 1   
    48    25    26 1   
    49    25    28 1   
    50    25    48 1   
    51    26    27 1   
    52    26    49 1   
    53    26    50 1   
    54    27    28 1   
    55    28    51 1   
    56    28    52 1   
    57    38    53 1   
@<TRIPOS>SUBSTRUCTURE
     1 9FS         1 TEMP              0 ****  ****    0 ROOT
