@<TRIPOS>MOLECULE
9FS
   53    57     1     0     0
SMALL
abcg2


@<TRIPOS>ATOM
      1 C14         -2.4950     1.9390    -0.0090 ca         1 9FS       0.431900
      2 C5           1.1690    -0.4760     0.0170 cc         1 9FS      -0.102300
      3 C6           0.2590     0.5630     0.0210 cd         1 9FS      -0.224000
      4 C11         -4.7290     0.4100    -0.0520 ca         1 9FS      -0.331300
      5 C7          -1.0010    -0.0580     0.0000 cd         1 9FS       0.320500
      6 C9          -2.3240     0.5610    -0.0110 ca         1 9FS      -0.229500
      7 C10         -3.4910    -0.2000    -0.0360 ca         1 9FS       0.035000
      8 C12         -4.7870     1.8250    -0.0320 ca         1 9FS       0.656900
      9 C3           0.4090    -3.7330     1.2220 c3         1 9FS      -0.104100
     10 C1           0.4350    -3.6840    -1.3090 c3         1 9FS      -0.104100
     11 N4           0.4380    -1.6130    -0.0030 na         1 9FS       0.142800
     12 N8          -0.8710    -1.3740    -0.0130 nc         1 9FS      -0.525800
     13 N13         -3.6680     2.5470    -0.0150 nb         1 9FS      -0.760000
     14 N15         -5.9450     2.5270    -0.0800 nv         1 9FS      -1.051900
     15 C16         -5.9730    -0.4100    -0.1270 c3         1 9FS       0.368300
     16 F17         -6.8040    -0.1680     0.9040 f          1 9FS      -0.116667
     17 F18         -6.6760    -0.1530    -1.2410 f          1 9FS      -0.116667
     18 F19         -5.7260    -1.7210    -0.1180 f          1 9FS      -0.116667
     19 C20          2.6380    -0.4270     0.0270 cx         1 9FS      -0.061400
     20 C21          3.3250     0.6670    -0.7520 cx         1 9FS      -0.111200
     21 C22          3.3160     0.7130     0.7410 cx         1 9FS      -0.111200
     22 C23          4.7470     0.4870     1.1860 c5         1 9FS       0.190300
     23 N24          5.5430     0.8030     0.0030 n3         1 9FS      -0.721600
     24 C25          4.7600     0.4150    -1.1670 c5         1 9FS       0.190300
     25 C26          6.8670     0.2520     0.0250 cy         1 9FS       0.112500
     26 C27          7.8290     0.8760     1.0420 cy         1 9FS       0.144600
     27 O28          8.7250     1.3030     0.0070 oq         1 9FS      -0.446000
     28 C29          7.8390     0.8260    -1.0130 cy         1 9FS       0.144600
     29 H1          -1.6310     2.5960     0.0020 h4         1 9FS       0.022100
     30 H2           0.4850     1.6180     0.0350 ha         1 9FS       0.143000
     31 H3          -3.4100    -1.2780    -0.0480 ha         1 9FS       0.148000
     32 H4          -0.6800    -3.7730     1.2630 hc         1 9FS       0.050700
     33 H5           0.7850    -4.7560     1.2150 hc         1 9FS       0.050700
     34 H6           0.7710    -3.2460     2.1270 hc         1 9FS       0.050700
     35 H7          -0.6520    -3.7250    -1.3720 hc         1 9FS       0.050700
     36 H8           0.8130    -3.1590    -2.1860 hc         1 9FS       0.050700
     37 H9           0.8150    -4.7050    -1.3370 hc         1 9FS       0.050700
     38 H10          1.9740    -2.9760    -0.0140 h1         1 9FS       0.054700
     39 H11         -6.8110     2.1250     0.2300 hn         1 9FS       0.488000
     40 H12         -5.8610     3.5160     0.0920 hn         1 9FS       0.488000
     41 H13          3.1530    -1.3810     0.0620 hc         1 9FS       0.084700
     42 H14          2.7080     1.3330    -1.3410 hc         1 9FS       0.105200
     43 H15          2.6970     1.4170     1.2820 hc         1 9FS       0.105200
     44 H16          5.0190     1.1380     2.0200 h1         1 9FS       0.044700
     45 H17          4.8960    -0.5510     1.5250 h1         1 9FS       0.044700
     46 H19          4.9110    -0.6420    -1.4390 h1         1 9FS       0.044700
     47 H20          5.0410     1.0130    -2.0360 h1         1 9FS       0.044700
     48 H21          6.8620    -0.8490     0.0530 h1         1 9FS       0.039700
     49 H22          7.4080     1.7170     1.6030 h1         1 9FS       0.056700
     50 H23          8.3020     0.1830     1.7420 h1         1 9FS       0.056700
     51 H24          8.3180     0.0990    -1.6740 h1         1 9FS       0.056700
     52 H25          7.4210     1.6370    -1.6170 h1         1 9FS       0.056700
     53 C2           0.8850    -3.0020    -0.0250 c3         1 9FS       0.105300
@<TRIPOS>BOND
     1     1     6 ar  
     2     1    13 ar  
     3     1    29 1   
     4     2     3 2   
     5     2    11 1   
     6     2    19 1   
     7     3     5 1   
     8     3    30 1   
     9     4     7 ar  
    10     4     8 ar  
    11     4    15 1   
    12     5     6 1   
    13     5    12 2   
    14     6     7 ar  
    15     7    31 1   
    16     8    13 ar  
    17     8    14 1   
    18     9    32 1   
    19     9    33 1   
    20     9    34 1   
    21     9    53 1   
    22    10    35 1   
    23    10    36 1   
    24    10    37 1   
    25    10    53 1   
    26    11    12 1   
    27    11    53 1   
    28    14    39 1   
    29    14    40 1   
    30    15    16 1   
    31    15    17 1   
    32    15    18 1   
    33    19    20 1   
    34    19    21 1   
    35    19    41 1   
    36    20    21 1   
    37    20    24 1   
    38    20    42 1   
    39    21    22 1   
    40    21    43 1   
    41    22    23 1   
    42    22    44 1   
    43    22    45 1   
    44    23    24 1   
    45    23    25 1   
    46    24    46 1   
    47    24    47 1   
    48    25    26 1   
    49    25    28 1   
    50    25    48 1   
    51    26    27 1   
    52    26    49 1   
    53    26    50 1   
    54    27    28 1   
    55    28    51 1   
    56    28    52 1   
    57    38    53 1   
@<TRIPOS>SUBSTRUCTURE
     1 9FS         1 TEMP              0 ****  ****    0 ROOT
