@<TRIPOS>MOLECULE
9FT
   29    30     1     0     0
SMALL
bcc


@<TRIPOS>ATOM
      1 C2          22.7450    16.3400    -7.3820 c          1 9FT       0.720500
      2 C3          25.0550    16.7650    -8.1960 c          1 9FT       0.718500
      3 C5          23.5920    18.6980    -7.5520 c6         1 9FT      -0.069400
      4 C6          25.9820    19.0850    -8.2920 ca         1 9FT      -0.115300
      5 C7          27.0470    19.6450    -7.6060 ca         1 9FT      -0.073500
      6 C9          27.7490    20.8710    -9.5520 ca         1 9FT       0.149100
      7 C10         26.6780    20.3130   -10.2570 ca         1 9FT      -0.188500
      8 C11         25.8130    19.4360    -9.6330 ca         1 9FT      -0.073500
      9 C1          22.6880    17.7280    -6.8130 c6         1 9FT      -0.166400
     10 C12         29.6250    22.3210    -9.5700 c3         1 9FT       0.124700
     11 C4          25.0200    18.1580    -7.6010 c6         1 9FT      -0.086400
     12 C8          27.9300    20.5310    -8.2160 ca         1 9FT      -0.188500
     13 N1          23.9200    16.0010    -8.0240 ns         1 9FT      -0.621500
     14 O1          21.8490    15.5330    -7.2910 o          1 9FT      -0.592500
     15 O2          26.0130    16.3020    -8.7700 o          1 9FT      -0.579500
     16 O3          28.5410    21.7140   -10.2420 os         1 9FT      -0.315900
     17 H1          23.5920    19.6630    -7.0470 hc         1 9FT       0.061700
     18 H2          23.2160    18.8680    -8.5640 hc         1 9FT       0.061700
     19 H3          27.2040    19.3920    -6.5640 ha         1 9FT       0.130000
     20 H4          26.5330    20.5750   -11.2970 ha         1 9FT       0.142000
     21 H5          24.9910    19.0220   -10.2060 ha         1 9FT       0.130000
     22 H6          21.6490    18.0570    -6.8170 hc         1 9FT       0.079700
     23 H7          22.9940    17.6600    -5.7630 hc         1 9FT       0.079700
     24 H8          30.1110    22.9740   -10.2910 h1         1 9FT       0.041367
     25 H9          29.2940    22.9230    -8.7190 h1         1 9FT       0.041367
     26 H10         30.3520    21.5850    -9.2170 h1         1 9FT       0.041367
     27 H11         25.3570    18.0290    -6.5620 hc         1 9FT       0.075700
     28 H12         28.7450    20.9390    -7.6330 ha         1 9FT       0.142000
     29 H13         23.9640    15.0590    -8.3990 hn         1 9FT       0.329500
@<TRIPOS>BOND
     1     1     9 1   
     2     1    13 1   
     3     1    14 2   
     4     2    11 1   
     5     2    13 1   
     6     2    15 2   
     7     3     9 1   
     8     3    11 1   
     9     3    17 1   
    10     3    18 1   
    11     4     5 ar  
    12     4     8 ar  
    13     4    11 1   
    14     5    12 ar  
    15     5    19 1   
    16     6     7 ar  
    17     6    12 ar  
    18     6    16 1   
    19     7     8 ar  
    20     7    20 1   
    21     8    21 1   
    22     9    22 1   
    23     9    23 1   
    24    10    16 1   
    25    10    24 1   
    26    10    25 1   
    27    10    26 1   
    28    11    27 1   
    29    12    28 1   
    30    13    29 1   
@<TRIPOS>SUBSTRUCTURE
     1 9FT         1 TEMP              0 ****  ****    0 ROOT
