@<TRIPOS>MOLECULE
9FT
   29    30     1     0     0
SMALL
No Charge or Current Charge


@<TRIPOS>ATOM
      1 C2          22.6770    16.3850    -7.6860 c          1 9FT       0.578000
      2 C3          25.0910    16.7090    -8.0360 c          1 9FT       0.576000
      3 C5          23.6270    18.7310    -7.3050 c6         1 9FT      -0.069400
      4 C6          25.9990    19.0840    -8.1890 ca         1 9FT      -0.115300
      5 C7          27.0580    19.7250    -7.5170 ca         1 9FT      -0.055500
      6 C9          27.7280    20.8300    -9.5880 ca         1 9FT       0.149100
      7 C10         26.6730    20.1910   -10.2570 ca         1 9FT      -0.170500
      8 C11         25.8120    19.3230    -9.5660 ca         1 9FT      -0.055500
      9 C1          22.6040    17.6670    -6.8520 c6         1 9FT      -0.166400
     10 C12         29.6490    22.3730    -9.7290 c3         1 9FT       0.147900
     11 C4          25.0580    18.1350    -7.4260 c6         1 9FT      -0.086400
     12 C8          27.9200    20.5940    -8.2100 ca         1 9FT      -0.170500
     13 N1          23.8970    16.0660    -8.2050 ns         1 9FT      -0.487500
     14 O1          21.6940    15.7050    -7.9240 o          1 9FT      -0.517000
     15 O2          26.1330    16.1620    -8.3610 o          1 9FT      -0.504000
     16 O3          28.5410    21.6710   -10.3200 os         1 9FT      -0.339100
     17 H1          23.6290    19.5830    -6.6110 hc         1 9FT       0.061700
     18 H2          23.3070    19.1290    -8.2780 hc         1 9FT       0.061700
     19 H3          27.2160    19.5530    -6.4540 ha         1 9FT       0.112000
     20 H4          26.5230    20.3700   -11.3190 ha         1 9FT       0.124000
     21 H5          25.0000    18.8360   -10.1030 ha         1 9FT       0.112000
     22 H6          21.5720    18.0390    -6.8170 hc         1 9FT       0.079700
     23 H7          22.8830    17.3760    -5.8310 hc         1 9FT       0.079700
     24 H8          30.1590    22.9840   -10.4840 h1         1 9FT       0.041367
     25 H9          29.3060    23.0400    -8.9280 h1         1 9FT       0.041367
     26 H10         30.3800    21.6680    -9.3120 h1         1 9FT       0.041367
     27 H11         25.4450    18.0000    -6.4070 hc         1 9FT       0.075700
     28 H12         28.7260    21.0720    -7.6610 ha         1 9FT       0.124000
     29 H13         23.9420    15.1870    -8.6980 hn         1 9FT       0.329500
@<TRIPOS>BOND
     1     1     9 1   
     2     1    13 1   
     3     1    14 2   
     4     2    11 1   
     5     2    13 1   
     6     2    15 2   
     7     3     9 1   
     8     3    11 1   
     9     3    17 1   
    10     3    18 1   
    11     4     5 ar  
    12     4     8 ar  
    13     4    11 1   
    14     5    12 ar  
    15     5    19 1   
    16     6     7 ar  
    17     6    12 ar  
    18     6    16 1   
    19     7     8 ar  
    20     7    20 1   
    21     8    21 1   
    22     9    22 1   
    23     9    23 1   
    24    10    16 1   
    25    10    24 1   
    26    10    25 1   
    27    10    26 1   
    28    11    27 1   
    29    12    28 1   
    30    13    29 1   
@<TRIPOS>SUBSTRUCTURE
     1 9FT         1 TEMP              0 ****  ****    0 ROOT
