@<TRIPOS>MOLECULE
9FU
   60    64     1     0     0
SMALL
abcg2


@<TRIPOS>ATOM
      1 C10         -4.9750     1.3370    -0.0510 c          1 9FU       0.572300
      2 C13         -5.6280    -0.8680    -0.9200 c3         1 9FU      -0.082100
      3 C15          1.5060     0.4560     0.4240 c6         1 9FU      -0.000600
      4 C17          2.6960    -1.7710     0.1840 ce         1 9FU      -0.210400
      5 C20          2.8230     1.0590     0.1100 c2         1 9FU      -0.063400
      6 C21          5.0650     1.2960    -0.2000 c          1 9FU       0.668300
      7 C22          3.1370     2.5050    -0.0360 c5         1 9FU       0.178800
      8 C24          1.3360     0.6940     1.9510 c3         1 9FU      -0.078100
      9 C01         -2.1280     0.5350     0.0550 c6         1 9FU       0.000200
     10 C02         -3.2190    -0.4650    -0.3860 c6         1 9FU      -0.043700
     11 C03         -2.7590    -1.8890    -0.0990 c6         1 9FU      -0.066400
     12 C04         -1.5950    -2.2110    -1.0180 c6         1 9FU      -0.068400
     13 C05         -0.4330    -1.2250    -0.9550 c6         1 9FU       0.196000
     14 C06         -0.8510     0.2490    -0.8000 c6         1 9FU      -0.061700
     15 C07         -1.8690     0.5510     1.5650 c3         1 9FU      -0.082100
     16 C08         -2.5990     1.9190    -0.2900 c2         1 9FU      -0.159200
     17 C09         -3.8850     2.2710    -0.3450 ce         1 9FU      -0.295200
     18 C11         -4.6730    -0.1560     0.0530 c6         1 9FU      -0.130000
     19 O01         -6.1070     1.7550     0.1120 o          1 9FU      -0.519100
     20 C12         -5.0270    -0.6270     1.4710 c3         1 9FU      -0.082100
     21 O02          0.3580    -1.6200     0.2010 os         1 9FU      -0.354100
     22 C14          1.5670    -1.0360     0.2380 c2         1 9FU       0.121900
     23 C16          0.3990     1.0990    -0.4600 c6         1 9FU      -0.054400
     24 C18          4.0020    -1.1000     0.1300 c          1 9FU       0.598500
     25 C19          3.9550     0.3580     0.0140 ce         1 9FU      -0.283400
     26 O03          4.5440     2.5400    -0.2260 os         1 9FU      -0.425100
     27 O04          6.2400     1.1020    -0.3410 o          1 9FU      -0.444000
     28 O05          5.0530    -1.7180     0.1250 o          1 9FU      -0.485100
     29 C23          2.7020    -3.2660     0.1070 c3         1 9FU      -0.035900
     30 C25          0.4060    -1.3990    -2.2240 c3         1 9FU      -0.124100
     31 H1          -5.5040    -1.9500    -0.8580 hc         1 9FU       0.043367
     32 H2          -6.6680    -0.6480    -0.6810 hc         1 9FU       0.043367
     33 H3          -5.4470    -0.5720    -1.9550 hc         1 9FU       0.043367
     34 H5           2.6400     2.9510    -0.9020 h1         1 9FU       0.082200
     35 H6           2.8670     3.0870     0.8480 h1         1 9FU       0.082200
     36 H7           0.5350     0.0870     2.3610 hc         1 9FU       0.052367
     37 H8           2.2540     0.4250     2.4730 hc         1 9FU       0.052367
     38 H9           1.1190     1.7420     2.1570 hc         1 9FU       0.052367
     39 H10         -3.2440    -0.3670    -1.4820 hc         1 9FU       0.045700
     40 H11         -2.4870    -2.0200     0.9510 hc         1 9FU       0.054200
     41 H12         -3.5550    -2.6090    -0.2950 hc         1 9FU       0.054200
     42 H13         -1.2040    -3.2160    -0.8400 hc         1 9FU       0.056700
     43 H14         -1.9730    -2.2080    -2.0430 hc         1 9FU       0.056700
     44 H15         -2.7690     0.8130     2.1150 hc         1 9FU       0.043367
     45 H16         -1.5110    -0.4050     1.9430 hc         1 9FU       0.043367
     46 H17         -1.1330     1.3120     1.8120 hc         1 9FU       0.043367
     47 H18         -1.8490     2.6880    -0.4500 ha         1 9FU       0.174000
     48 H19         -4.1660     3.2980    -0.5490 ha         1 9FU       0.200000
     49 H20         -4.8280    -1.6940     1.5770 hc         1 9FU       0.043367
     50 H21         -4.4770    -0.1090     2.2530 hc         1 9FU       0.043367
     51 H22         -6.0890    -0.4720     1.6600 hc         1 9FU       0.043367
     52 H24          0.1140     2.0500    -0.0080 hc         1 9FU       0.048700
     53 H25          3.2660    -3.6960     0.9360 hc         1 9FU       0.052033
     54 H26          1.6960    -3.6740     0.1380 hc         1 9FU       0.052033
     55 H27          3.1770    -3.6090    -0.8130 hc         1 9FU       0.052033
     56 H28         -0.2220    -1.2150    -3.0950 hc         1 9FU       0.050700
     57 H29          1.2540    -0.7160    -2.2850 hc         1 9FU       0.050700
     58 H30          0.7880    -2.4180    -2.2970 hc         1 9FU       0.050700
     59 H4          -1.1410     0.5630    -1.8100 hc         1 9FU       0.055700
     60 H23          0.8610     1.3610    -1.4130 hc         1 9FU       0.048700
@<TRIPOS>BOND
     1     1    17 1   
     2     1    18 1   
     3     1    19 2   
     4     2    18 1   
     5     2    31 1   
     6     2    32 1   
     7     2    33 1   
     8     3     5 1   
     9     3     8 1   
    10     3    22 1   
    11     3    23 1   
    12     4    22 2   
    13     4    24 1   
    14     4    29 1   
    15     5     7 1   
    16     5    25 2   
    17     6    25 1   
    18     6    26 1   
    19     6    27 2   
    20     7    26 1   
    21     7    34 1   
    22     7    35 1   
    23     8    36 1   
    24     8    37 1   
    25     8    38 1   
    26     9    10 1   
    27     9    14 1   
    28     9    15 1   
    29     9    16 1   
    30    10    11 1   
    31    10    18 1   
    32    10    39 1   
    33    11    12 1   
    34    11    40 1   
    35    11    41 1   
    36    12    13 1   
    37    12    42 1   
    38    12    43 1   
    39    13    14 1   
    40    13    21 1   
    41    13    30 1   
    42    14    23 1   
    43    14    59 1   
    44    15    44 1   
    45    15    45 1   
    46    15    46 1   
    47    16    17 2   
    48    16    47 1   
    49    17    48 1   
    50    18    20 1   
    51    20    49 1   
    52    20    50 1   
    53    20    51 1   
    54    21    22 1   
    55    23    52 1   
    56    23    60 1   
    57    24    25 1   
    58    24    28 2   
    59    29    53 1   
    60    29    54 1   
    61    29    55 1   
    62    30    56 1   
    63    30    57 1   
    64    30    58 1   
@<TRIPOS>SUBSTRUCTURE
     1 9FU         1 TEMP              0 ****  ****    0 ROOT
