@<TRIPOS>MOLECULE
9FU
   60    64     1     0     0
SMALL
No Charge or Current Charge


@<TRIPOS>ATOM
      1 C10         -5.0290     1.3320     0.2650 c          1 9FU       0.572300
      2 C13         -5.8630    -0.7800    -0.8210 c3         1 9FU      -0.082100
      3 C15          1.5440     0.5080     0.3990 c6         1 9FU      -0.000600
      4 C17          2.7320    -1.7530     0.3540 ce         1 9FU      -0.210400
      5 C20          2.9150     1.0710     0.0670 c2         1 9FU      -0.063400
      6 C21          5.2050     1.2380    -0.1250 c          1 9FU       0.668300
      7 C22          3.2810     2.5280    -0.1670 c5         1 9FU       0.178800
      8 C24          1.3700     0.8390     1.9140 c3         1 9FU      -0.078100
      9 C01         -2.1600     0.5630    -0.0540 c6         1 9FU       0.000200
     10 C02         -3.3300    -0.4960    -0.4920 c6         1 9FU      -0.043700
     11 C03         -2.8230    -1.9430    -0.2920 c6         1 9FU      -0.066400
     12 C04         -1.6260    -2.1980    -1.2280 c6         1 9FU      -0.068400
     13 C05         -0.4150    -1.2300    -1.0380 c6         1 9FU       0.196000
     14 C06         -0.8150     0.2870    -0.9030 c6         1 9FU      -0.061700
     15 C07         -1.8760     0.5940     1.4970 c3         1 9FU      -0.082100
     16 C08         -2.6700     1.9890    -0.3580 c2         1 9FU      -0.159200
     17 C09         -3.9840     2.2800    -0.2350 ce         1 9FU      -0.295200
     18 C11         -4.7680    -0.2070     0.1420 c6         1 9FU      -0.130000
     19 O01         -6.0950     1.7680     0.6830 o          1 9FU      -0.519100
     20 C12         -5.0670    -0.8730     1.5580 c3         1 9FU      -0.082100
     21 O02          0.3680    -1.6450     0.1030 os         1 9FU      -0.354100
     22 C14          1.5800    -1.0300     0.3020 c2         1 9FU       0.121900
     23 C16          0.4520     1.1570    -0.5420 c6         1 9FU      -0.054400
     24 C18          4.0810    -1.0820     0.3400 c          1 9FU       0.598500
     25 C19          4.0470     0.3750     0.0990 ce         1 9FU      -0.283400
     26 O03          4.7360     2.5160    -0.2860 os         1 9FU      -0.425100
     27 O04          6.3820     0.9150    -0.1660 o          1 9FU      -0.444000
     28 O05          5.1290    -1.7020     0.4610 o          1 9FU      -0.485100
     29 C23          2.7350    -3.2820     0.2900 c3         1 9FU      -0.035900
     30 C25          0.5100    -1.4470    -2.2900 c3         1 9FU      -0.124100
     31 H1          -5.7630    -1.8630    -0.9570 hc         1 9FU       0.043367
     32 H2          -6.8760    -0.5970    -0.4410 hc         1 9FU       0.043367
     33 H3          -5.8050    -0.3170    -1.8130 hc         1 9FU       0.043367
     34 H5           2.8420     2.9280    -1.0910 h1         1 9FU       0.082200
     35 H6           2.9870     3.1720     0.6720 h1         1 9FU       0.082200
     36 H7           0.6130     0.2160     2.3950 hc         1 9FU       0.052367
     37 H8           2.2960     0.6430     2.4700 hc         1 9FU       0.052367
     38 H9           1.1170     1.8940     2.0770 hc         1 9FU       0.052367
     39 H10         -3.4500    -0.3510    -1.5750 hc         1 9FU       0.045700
     40 H11         -2.5360    -2.1240     0.7520 hc         1 9FU       0.054200
     41 H12         -3.6150    -2.6660    -0.5270 hc         1 9FU       0.054200
     42 H13         -1.2840    -3.2340    -1.0980 hc         1 9FU       0.056700
     43 H14         -1.9860    -2.1380    -2.2650 hc         1 9FU       0.056700
     44 H15         -2.7780     0.8250     2.0670 hc         1 9FU       0.043367
     45 H16         -1.4810    -0.3590     1.8640 hc         1 9FU       0.043367
     46 H17         -1.1870     1.4010     1.7530 hc         1 9FU       0.043367
     47 H18         -1.9520     2.7460    -0.6790 ha         1 9FU       0.174000
     48 H19         -4.3330     3.2990    -0.3940 ha         1 9FU       0.200000
     49 H20         -4.9880    -1.9660     1.5120 hc         1 9FU       0.043367
     50 H21         -4.3870    -0.5370     2.3450 hc         1 9FU       0.043367
     51 H22         -6.0830    -0.6470     1.9030 hc         1 9FU       0.043367
     52 H24          0.1600     2.1400    -0.1520 hc         1 9FU       0.048700
     53 H25          2.8330    -3.7140     1.2930 hc         1 9FU       0.052033
     54 H26          1.8170    -3.6870    -0.1520 hc         1 9FU       0.052033
     55 H27          3.5640    -3.6640    -0.3170 hc         1 9FU       0.052033
     56 H28         -0.0260    -1.2270    -3.2210 hc         1 9FU       0.050700
     57 H29          1.4010    -0.8100    -2.2900 hc         1 9FU       0.050700
     58 H30          0.8530    -2.4870    -2.3520 hc         1 9FU       0.050700
     59 H4          -1.0940     0.5960    -1.9200 hc         1 9FU       0.055700
     60 H23          0.9410     1.3880    -1.4990 hc         1 9FU       0.048700
@<TRIPOS>BOND
     1     1    17 1   
     2     1    18 1   
     3     1    19 2   
     4     2    18 1   
     5     2    31 1   
     6     2    32 1   
     7     2    33 1   
     8     3     5 1   
     9     3     8 1   
    10     3    22 1   
    11     3    23 1   
    12     4    22 2   
    13     4    24 1   
    14     4    29 1   
    15     5     7 1   
    16     5    25 2   
    17     6    25 1   
    18     6    26 1   
    19     6    27 2   
    20     7    26 1   
    21     7    34 1   
    22     7    35 1   
    23     8    36 1   
    24     8    37 1   
    25     8    38 1   
    26     9    10 1   
    27     9    14 1   
    28     9    15 1   
    29     9    16 1   
    30    10    11 1   
    31    10    18 1   
    32    10    39 1   
    33    11    12 1   
    34    11    40 1   
    35    11    41 1   
    36    12    13 1   
    37    12    42 1   
    38    12    43 1   
    39    13    14 1   
    40    13    21 1   
    41    13    30 1   
    42    14    23 1   
    43    14    59 1   
    44    15    44 1   
    45    15    45 1   
    46    15    46 1   
    47    16    17 2   
    48    16    47 1   
    49    17    48 1   
    50    18    20 1   
    51    20    49 1   
    52    20    50 1   
    53    20    51 1   
    54    21    22 1   
    55    23    52 1   
    56    23    60 1   
    57    24    25 1   
    58    24    28 2   
    59    29    53 1   
    60    29    54 1   
    61    29    55 1   
    62    30    56 1   
    63    30    57 1   
    64    30    58 1   
@<TRIPOS>SUBSTRUCTURE
     1 9FU         1 TEMP              0 ****  ****    0 ROOT
