@<TRIPOS>MOLECULE
9FV
   55    58     1     0     0
SMALL
No Charge or Current Charge


@<TRIPOS>ATOM
      1 C14         -2.4960     1.8770    -0.4580 ca         1 9FV       0.429900
      2 C5           1.1680    -0.4820    -0.3590 cc         1 9FV      -0.132300
      3 C6           0.1980     0.4770    -0.4440 cd         1 9FV      -0.218000
      4 C11         -4.7970     0.4190    -0.0950 ca         1 9FV      -0.329300
      5 C7          -1.0520    -0.1530    -0.2560 cd         1 9FV       0.315500
      6 C9          -2.3770     0.4900    -0.2650 ca         1 9FV      -0.225500
      7 C10         -3.5590    -0.2550    -0.0780 ca         1 9FV       0.033000
      8 C12         -4.7680     1.8010    -0.3030 ca         1 9FV       0.652900
      9 C3           0.7090    -3.5890     1.4610 c3         1 9FV      -0.103600
     10 C1           0.5480    -3.9830    -1.0640 c3         1 9FV      -0.103600
     11 N4           0.4470    -1.6540    -0.1230 na         1 9FV       0.139800
     12 N8          -0.9210    -1.4500    -0.0600 nc         1 9FV      -0.525800
     13 N13         -3.6790     2.5270    -0.4760 nb         1 9FV      -0.759000
     14 N15         -5.8340     2.5970    -0.3410 nv         1 9FV      -1.048900
     15 C16         -6.1130    -0.3320     0.0930 c3         1 9FV       0.368300
     16 F17         -6.8180     0.1470     1.1430 f          1 9FV      -0.116667
     17 F18         -6.9060    -0.2330    -0.9970 f          1 9FV      -0.116667
     18 F19         -5.9370    -1.6540     0.3220 f          1 9FV      -0.116667
     19 C20          2.6720    -0.3220    -0.4940 c6         1 9FV       0.003600
     20 C21          3.0700     0.9730    -1.2490 c6         1 9FV      -0.072400
     21 C22          4.6080     1.1140    -1.3230 c6         1 9FV       0.175300
     22 N23          5.2210     1.1090     0.0350 n3         1 9FV      -0.723600
     23 C24          4.8730    -0.1360     0.7860 c6         1 9FV       0.175300
     24 C25          3.3410    -0.3200     0.9020 c6         1 9FV      -0.072400
     25 C26          6.6900     1.4180    -0.0250 cy         1 9FV       0.133500
     26 C27          7.5750     1.3570     1.2660 cy         1 9FV       0.120600
     27 O28          8.6860     0.9240     0.3960 oq         1 9FV      -0.450000
     28 C29          7.7020     0.3370    -0.5340 cy         1 9FV       0.120600
     29 H1          -1.6190     2.5050    -0.6040 h4         1 9FV       0.022100
     30 H2           0.3600     1.5330    -0.6220 ha         1 9FV       0.144000
     31 H3          -3.5110    -1.3330     0.0740 ha         1 9FV       0.148000
     32 H4          -0.3680    -3.7320     1.6110 hc         1 9FV       0.050367
     33 H5           1.2060    -4.5570     1.5970 hc         1 9FV       0.050367
     34 H6           1.0770    -2.9060     2.2360 hc         1 9FV       0.050367
     35 H7           0.8070    -3.5760    -2.0490 hc         1 9FV       0.050367
     36 H8           1.0400    -4.9570    -0.9590 hc         1 9FV       0.050367
     37 H9          -0.5370    -4.1410    -1.0310 hc         1 9FV       0.050367
     38 H10          2.0920    -2.9410    -0.0270 h1         1 9FV       0.055700
     39 H11         -6.6600     2.2800     0.1500 hn         1 9FV       0.485500
     40 H12         -5.6190     3.5830    -0.2720 hn         1 9FV       0.485500
     41 H13          3.0710    -1.1710    -1.0680 hc         1 9FV       0.050700
     42 H14          2.6490     0.9640    -2.2640 hc         1 9FV       0.055700
     43 H15          2.6600     1.8550    -0.7400 hc         1 9FV       0.055700
     44 H16          5.0180     0.2930    -1.9310 h1         1 9FV       0.034950
     45 H17          4.8470     2.0530    -1.8440 h1         1 9FV       0.034950
     46 H19          5.2980    -1.0200     0.2880 h1         1 9FV       0.034950
     47 H20          5.2850    -0.1050     1.8040 h1         1 9FV       0.034950
     48 H21          2.9210     0.4880     1.5160 hc         1 9FV       0.055700
     49 H22          3.1250    -1.2580     1.4310 hc         1 9FV       0.055700
     50 H23          6.8550     2.3710    -0.5440 h1         1 9FV       0.073700
     51 H24          7.7680     2.3180     1.7540 h1         1 9FV       0.053700
     52 H25          7.3120     0.5800     1.9930 h1         1 9FV       0.053700
     53 H26          7.4620    -0.6990    -0.2660 h1         1 9FV       0.053700
     54 H27          8.0030     0.4250    -1.5840 h1         1 9FV       0.053700
     55 C2           1.0020    -3.0200     0.0550 c3         1 9FV       0.103300
@<TRIPOS>BOND
     1     1     6 ar  
     2     1    13 ar  
     3     1    29 1   
     4     2     3 2   
     5     2    11 1   
     6     2    19 1   
     7     3     5 1   
     8     3    30 1   
     9     4     7 ar  
    10     4     8 ar  
    11     4    15 1   
    12     5     6 1   
    13     5    12 2   
    14     6     7 ar  
    15     7    31 1   
    16     8    13 ar  
    17     8    14 1   
    18     9    32 1   
    19     9    33 1   
    20     9    34 1   
    21     9    55 1   
    22    10    35 1   
    23    10    36 1   
    24    10    37 1   
    25    10    55 1   
    26    11    12 1   
    27    11    55 1   
    28    14    39 1   
    29    14    40 1   
    30    15    16 1   
    31    15    17 1   
    32    15    18 1   
    33    19    20 1   
    34    19    24 1   
    35    19    41 1   
    36    20    21 1   
    37    20    42 1   
    38    20    43 1   
    39    21    22 1   
    40    21    44 1   
    41    21    45 1   
    42    22    23 1   
    43    22    25 1   
    44    23    24 1   
    45    23    46 1   
    46    23    47 1   
    47    24    48 1   
    48    24    49 1   
    49    25    26 1   
    50    25    28 1   
    51    25    50 1   
    52    26    27 1   
    53    26    51 1   
    54    26    52 1   
    55    27    28 1   
    56    28    53 1   
    57    28    54 1   
    58    38    55 1   
@<TRIPOS>SUBSTRUCTURE
     1 9FV         1 TEMP              0 ****  ****    0 ROOT
