@<TRIPOS>MOLECULE
9FV
   55    58     1     0     0
SMALL
bcc


@<TRIPOS>ATOM
      1 C14         -2.5070     1.8800    -0.6500 ca         1 9FV       0.495200
      2 C5           1.2130    -0.4630    -0.5030 cc         1 9FV      -0.081600
      3 C6           0.2920     0.5630    -0.5540 cd         1 9FV      -0.301300
      4 C11         -4.6500     0.4180     0.1300 ca         1 9FV      -0.394600
      5 C7          -0.9580    -0.0580    -0.3740 cd         1 9FV       0.380800
      6 C9          -2.2850     0.5500    -0.3190 ca         1 9FV      -0.290800
      7 C10         -3.4070    -0.1780     0.0720 ca         1 9FV       0.015000
      8 C12         -4.7580     1.7880    -0.2100 ca         1 9FV       0.718200
      9 C3           0.6480    -3.5110     1.2070 c3         1 9FV      -0.103600
     10 C1           0.3920    -3.8370    -1.2870 c3         1 9FV      -0.103600
     11 N4           0.4960    -1.5940    -0.3080 na         1 9FV       0.118400
     12 N8          -0.8100    -1.3640    -0.2300 nc         1 9FV      -0.525800
     13 N13         -3.6860     2.4760    -0.5960 nb         1 9FV      -0.759000
     14 N15         -5.9330     2.4660    -0.2170 nv         1 9FV      -0.938500
     15 C16         -5.8490    -0.3770     0.5220 c3         1 9FV       0.732200
     16 F17         -6.4750     0.1450     1.5940 f          1 9FV      -0.237967
     17 F18         -6.7660    -0.4220    -0.4580 f          1 9FV      -0.237967
     18 F19         -5.5500    -1.6390     0.8310 f          1 9FV      -0.237967
     19 C20          2.7050    -0.4080    -0.5580 c6         1 9FV       0.003600
     20 C21          3.2020     0.7470    -1.4250 c6         1 9FV      -0.072400
     21 C22          4.7200     0.8190    -1.4060 c6         1 9FV       0.175300
     22 N23          5.2150     0.9670    -0.0480 n3         1 9FV      -0.723600
     23 C24          4.8230    -0.1590     0.7800 c6         1 9FV       0.175300
     24 C25          3.3070    -0.2760     0.8450 c6         1 9FV      -0.072400
     25 C26          6.6060     1.3230    -0.0000 cy         1 9FV       0.133500
     26 C27          7.2250     1.6880     1.3560 cy         1 9FV       0.097400
     27 O28          8.2840     0.7400     1.1790 oq         1 9FV      -0.403600
     28 C29          7.7340     0.2660    -0.0570 cy         1 9FV       0.097400
     29 H1          -1.6840     2.5060    -0.9780 h4         1 9FV       0.022100
     30 H2           0.5000     1.6110    -0.6900 ha         1 9FV       0.162000
     31 H3          -3.2880    -1.2220     0.3310 ha         1 9FV       0.166000
     32 H4          -0.4280    -3.5640     1.3680 hc         1 9FV       0.050367
     33 H5           1.0570    -4.5150     1.3150 hc         1 9FV       0.050367
     34 H6           1.0850    -2.8860     1.9870 hc         1 9FV       0.050367
     35 H7           0.6550    -3.4480    -2.2710 hc         1 9FV       0.050367
     36 H8           0.7910    -4.8480    -1.2080 hc         1 9FV       0.050367
     37 H9          -0.6940    -3.8960    -1.2170 hc         1 9FV       0.050367
     38 H10          2.0500    -2.9320    -0.2970 h1         1 9FV       0.055700
     39 H11         -6.7000     2.1770     0.3650 hn         1 9FV       0.430300
     40 H12         -5.8530     3.4660    -0.3160 hn         1 9FV       0.430300
     41 H13          3.0860    -1.3350    -1.0040 hc         1 9FV       0.050700
     42 H14          2.8570     0.6260    -2.4540 hc         1 9FV       0.055700
     43 H15          2.7990     1.6940    -1.0550 hc         1 9FV       0.055700
     44 H16          5.1340    -0.0780    -1.8990 h1         1 9FV       0.034950
     45 H17          5.0490     1.6780    -1.9930 h1         1 9FV       0.034950
     46 H19          5.2370    -1.1110     0.4080 h1         1 9FV       0.034950
     47 H20          5.2070    -0.0250     1.7920 h1         1 9FV       0.034950
     48 H21          2.8910     0.6090     1.3330 hc         1 9FV       0.055700
     49 H22          3.0420    -1.1380     1.4620 hc         1 9FV       0.055700
     50 H23          6.7620     2.1130    -0.7370 h1         1 9FV       0.073700
     51 H24          7.5900     2.7150     1.4420 h1         1 9FV       0.053700
     52 H25          6.6060     1.4700     2.2310 h1         1 9FV       0.053700
     53 H26          7.4100    -0.7770     0.0030 h1         1 9FV       0.053700
     54 H27          8.4340     0.3640    -0.8910 h1         1 9FV       0.053700
     55 C2           0.9680    -2.9680    -0.1780 c3         1 9FV       0.074000
@<TRIPOS>BOND
     1     1     6 ar  
     2     1    13 ar  
     3     1    29 1   
     4     2     3 2   
     5     2    11 1   
     6     2    19 1   
     7     3     5 1   
     8     3    30 1   
     9     4     7 ar  
    10     4     8 ar  
    11     4    15 1   
    12     5     6 1   
    13     5    12 2   
    14     6     7 ar  
    15     7    31 1   
    16     8    13 ar  
    17     8    14 1   
    18     9    32 1   
    19     9    33 1   
    20     9    34 1   
    21     9    55 1   
    22    10    35 1   
    23    10    36 1   
    24    10    37 1   
    25    10    55 1   
    26    11    12 1   
    27    11    55 1   
    28    14    39 1   
    29    14    40 1   
    30    15    16 1   
    31    15    17 1   
    32    15    18 1   
    33    19    20 1   
    34    19    24 1   
    35    19    41 1   
    36    20    21 1   
    37    20    42 1   
    38    20    43 1   
    39    21    22 1   
    40    21    44 1   
    41    21    45 1   
    42    22    23 1   
    43    22    25 1   
    44    23    24 1   
    45    23    46 1   
    46    23    47 1   
    47    24    48 1   
    48    24    49 1   
    49    25    26 1   
    50    25    28 1   
    51    25    50 1   
    52    26    27 1   
    53    26    51 1   
    54    26    52 1   
    55    27    28 1   
    56    28    53 1   
    57    28    54 1   
    58    38    55 1   
@<TRIPOS>SUBSTRUCTURE
     1 9FV         1 TEMP              0 ****  ****    0 ROOT
