@<TRIPOS>MOLECULE
9FX
   35    37     1     0     0
SMALL
No Charge or Current Charge


@<TRIPOS>ATOM
      1 C4          -4.5160    -0.5290    -0.4930 ca         1 9FX       0.211300
      2 C14          6.9430    -0.7060    -0.3010 ca         1 9FX      -0.129000
      3 C5          -3.4640     1.7220    -0.2270 cc         1 9FX       0.180300
      4 C6          -3.4400     2.4010     0.9540 cd         1 9FX      -0.111000
      5 C11          4.1210    -0.4610    -0.1160 ca         1 9FX      -0.130600
      6 C7          -2.0740     2.4990     1.3000 cd         1 9FX      -0.182000
      7 C8          -1.3460     1.8410     0.3350 cc         1 9FX       0.126700
      8 C9           0.0970     1.6200     0.2310 ce         1 9FX       0.264200
      9 C10          2.6090    -0.3660     0.0100 c          1 9FX       0.630700
     10 C12          4.8800     0.4430    -0.9060 ca         1 9FX      -0.133000
     11 C13          6.2760     0.3140    -0.9920 ca         1 9FX       0.165000
     12 N1          -4.6090    -0.9010     0.8050 nb         1 9FX      -0.164000
     13 N2          -4.1140    -1.3170    -1.5150 nb         1 9FX      -0.164000
     14 C3          -3.7630    -2.5820    -1.2100 ca         1 9FX       0.119900
     15 N3           0.6220     0.8820    -0.6990 n2         1 9FX      -0.374300
     16 C1          -4.2560    -2.1670     1.1040 ca         1 9FX       0.119900
     17 C15          6.2080    -1.6090     0.4840 ca         1 9FX      -0.091000
     18 C16          4.8100    -1.4870     0.5750 ca         1 9FX      -0.072000
     19 C2          -3.8180    -3.0580     0.1110 ca         1 9FX      -0.226000
     20 F1           6.9830     1.1830    -1.7470 f          1 9FX      -0.175000
     21 N4           1.9880     0.6630    -0.6960 ns         1 9FX      -0.277900
     22 O1          -2.2110     1.3230    -0.6130 os         1 9FX      -0.171000
     23 O2           1.9700    -1.1520     0.7020 o          1 9FX      -0.525100
     24 S1          -4.9810     1.1470    -0.9000 ss         1 9FX      -0.217600
     25 H2          -4.2940     2.7670     1.5130 ha         1 9FX       0.150000
     26 H3          -1.6670     2.9820     2.1830 ha         1 9FX       0.142000
     27 H4           0.7010     2.0770     1.0190 h4         1 9FX      -0.000200
     28 H5           4.4110     1.2510    -1.4600 ha         1 9FX       0.131000
     29 H6          -3.4360    -3.2170    -2.0310 h4         1 9FX       0.026600
     30 H7          -4.3270    -2.4670     2.1480 h4         1 9FX       0.026600
     31 H8           6.7210    -2.4040     1.0220 ha         1 9FX       0.126000
     32 H9           4.2620    -2.1990     1.1900 ha         1 9FX       0.142000
     33 H10         -3.5350    -4.0780     0.3540 ha         1 9FX       0.136000
     34 H11          2.6030     1.2580    -1.2410 hn         1 9FX       0.309500
     35 H1           8.0240    -0.7960    -0.3750 ha         1 9FX       0.137000
@<TRIPOS>BOND
     1     1    12 ar  
     2     1    13 ar  
     3     1    24 1   
     4     2    11 ar  
     5     2    17 ar  
     6     2    35 1   
     7     3     4 2   
     8     3    22 1   
     9     3    24 1   
    10     4     6 1   
    11     4    25 1   
    12     5     9 1   
    13     5    10 ar  
    14     5    18 ar  
    15     6     7 2   
    16     6    26 1   
    17     7     8 1   
    18     7    22 1   
    19     8    15 2   
    20     8    27 1   
    21     9    21 1   
    22     9    23 2   
    23    10    11 ar  
    24    10    28 1   
    25    11    20 1   
    26    12    16 ar  
    27    13    14 ar  
    28    14    19 ar  
    29    14    29 1   
    30    15    21 1   
    31    16    19 ar  
    32    16    30 1   
    33    17    18 ar  
    34    17    31 1   
    35    18    32 1   
    36    19    33 1   
    37    21    34 1   
@<TRIPOS>SUBSTRUCTURE
     1 9FX         1 TEMP              0 ****  ****    0 ROOT
