@<TRIPOS>MOLECULE
9FX
   35    37     1     0     0
SMALL
abcg2


@<TRIPOS>ATOM
      1 C4          -4.4920    -1.0270    -0.5750 ca         1 9FX       0.211300
      2 C14          7.2110    -0.3250    -0.0070 ca         1 9FX      -0.129000
      3 C5          -3.0830     1.3020    -0.6120 cc         1 9FX       0.180300
      4 C6          -3.2410     2.4110     0.1560 cd         1 9FX      -0.111000
      5 C11          4.4470    -0.3430    -0.3880 ca         1 9FX      -0.130600
      6 C7          -1.9490     2.7400     0.6380 cd         1 9FX      -0.182000
      7 C8          -1.1040     1.8010     0.1230 cc         1 9FX       0.126700
      8 C9           0.3170     1.6440     0.2840 ce         1 9FX       0.264200
      9 C10          2.9740    -0.4130    -0.6200 c          1 9FX       0.630700
     10 C12          5.1230     0.8700    -0.2800 ca         1 9FX      -0.133000
     11 C13          6.4910     0.8510    -0.0930 ca         1 9FX       0.165000
     12 N1          -3.8610    -1.1540     0.5730 nb         1 9FX      -0.164000
     13 N2          -5.3490    -1.8730    -1.1210 nb         1 9FX      -0.164000
     14 C3          -5.6030    -2.9740    -0.4240 ca         1 9FX       0.119900
     15 N3           0.9380     0.6890    -0.2860 n2         1 9FX      -0.374300
     16 C1          -4.1230    -2.2610     1.2600 ca         1 9FX       0.119900
     17 C15          6.5250    -1.5260    -0.1210 ca         1 9FX      -0.091000
     18 C16          5.1540    -1.5410    -0.3210 ca         1 9FX      -0.072000
     19 C2          -5.0040    -3.2240     0.7990 ca         1 9FX      -0.226000
     20 F1           7.1430     2.0180    -0.0020 f          1 9FX      -0.175000
     21 N4           2.2630     0.6190    -0.0910 ns         1 9FX      -0.277900
     22 O1          -1.7850     0.9320    -0.6450 os         1 9FX      -0.171000
     23 O2           2.4590    -1.3330    -1.2240 o          1 9FX      -0.525100
     24 S1          -4.2210     0.4170    -1.5690 ss         1 9FX      -0.217600
     25 H2          -4.1700     2.9210     0.3530 ha         1 9FX       0.150000
     26 H3          -1.6770     3.5600     1.2830 ha         1 9FX       0.142000
     27 H4           0.8050     2.3900     0.9130 h4         1 9FX      -0.000200
     28 H5           4.6170     1.8230    -0.3690 ha         1 9FX       0.131000
     29 H6          -6.3070    -3.6740    -0.8590 h4         1 9FX       0.026600
     30 H7          -3.6100    -2.3780     2.2070 h4         1 9FX       0.026600
     31 H8           7.0710    -2.4580    -0.0550 ha         1 9FX       0.126000
     32 H9           4.6320    -2.4830    -0.4150 ha         1 9FX       0.142000
     33 H10         -5.2120    -4.1210     1.3630 ha         1 9FX       0.136000
     34 H11          2.7170     1.3010     0.5070 hn         1 9FX       0.309500
     35 H1           8.2830    -0.3040     0.1390 ha         1 9FX       0.137000
@<TRIPOS>BOND
     1     1    12 ar  
     2     1    13 ar  
     3     1    24 1   
     4     2    11 ar  
     5     2    17 ar  
     6     2    35 1   
     7     3     4 2   
     8     3    22 1   
     9     3    24 1   
    10     4     6 1   
    11     4    25 1   
    12     5     9 1   
    13     5    10 ar  
    14     5    18 ar  
    15     6     7 2   
    16     6    26 1   
    17     7     8 1   
    18     7    22 1   
    19     8    15 2   
    20     8    27 1   
    21     9    21 1   
    22     9    23 2   
    23    10    11 ar  
    24    10    28 1   
    25    11    20 1   
    26    12    16 ar  
    27    13    14 ar  
    28    14    19 ar  
    29    14    29 1   
    30    15    21 1   
    31    16    19 ar  
    32    16    30 1   
    33    17    18 ar  
    34    17    31 1   
    35    18    32 1   
    36    19    33 1   
    37    21    34 1   
@<TRIPOS>SUBSTRUCTURE
     1 9FX         1 TEMP              0 ****  ****    0 ROOT
