@<TRIPOS>MOLECULE
9FZ
   27    27     1     0     0
SMALL
No Charge or Current Charge


@<TRIPOS>ATOM
      1 C7          -4.2110     0.1320    -0.0950 cc         1 9FZ       0.188300
      2 C2          -0.8360    -0.7680    -0.9230 c3         1 9FZ       0.069600
      3 N            2.5420     1.8590     0.5770 n8         1 9FZ      -1.003200
      4 CA           2.7010     0.3590     0.5130 c3         1 9FZ       0.013500
      5 C            4.1510    -0.1720     0.1510 c          1 9FZ       0.692000
      6 O            4.7170     0.2990    -0.8270 o          1 9FZ      -0.732000
      7 CB           1.6460    -0.2700    -0.4380 c3         1 9FZ      -0.050400
      8 C1           0.1790    -0.0860     0.0210 c3         1 9FZ      -0.093400
      9 C8          -3.0450     0.4950    -0.6910 cd         1 9FZ      -0.216000
     10 C9          -5.4820     0.9250     0.0110 c3         1 9FZ      -0.099400
     11 N4          -2.2310    -0.5960    -0.4910 na         1 9FZ       0.142800
     12 N5          -2.9030    -1.5710     0.2040 nd         1 9FZ      -0.204800
     13 N6          -4.1090    -1.1190     0.4400 nc         1 9FZ      -0.382000
     14 H1          -0.7350    -0.3480    -1.9320 h1         1 9FZ       0.064700
     15 H2          -0.6160    -1.8410    -0.9840 h1         1 9FZ       0.064700
     16 H6           2.4870    -0.0210     1.5220 h1         1 9FZ       0.041700
     17 H8           1.7710     0.1440    -1.4470 hc         1 9FZ       0.041200
     18 H9           1.8500    -1.3450    -0.5170 hc         1 9FZ       0.041200
     19 H10         -0.0570     0.9830     0.0820 hc         1 9FZ       0.055200
     20 H11          0.0610    -0.4980     1.0310 hc         1 9FZ       0.055200
     21 H12         -2.7450     1.3940    -1.2130 h4         1 9FZ       0.164000
     22 H13         -5.7470     1.0990     1.0600 hc         1 9FZ       0.038367
     23 H14         -5.3770     1.9010    -0.4770 hc         1 9FZ       0.038367
     24 H15         -6.3130     0.3950    -0.4690 hc         1 9FZ       0.038367
     25 OXT          4.6930    -0.9480     0.9260 o          1 9FZ      -0.732000
     26 H3           3.2130     2.2370     1.2570 hn         1 9FZ       0.383000
     27 H4           2.8680     2.2540    -0.3140 hn         1 9FZ       0.383000
@<TRIPOS>BOND
     1     1     9 2   
     2     1    10 1   
     3     1    13 1   
     4     2     8 1   
     5     2    11 1   
     6     2    14 1   
     7     2    15 1   
     8     3     4 1   
     9     3    26 1   
    10     3    27 1   
    11     4     5 1   
    12     4     7 1   
    13     4    16 1   
    14     5     6 1   
    15     5    25 1   
    16     7     8 1   
    17     7    17 1   
    18     7    18 1   
    19     8    19 1   
    20     8    20 1   
    21     9    11 1   
    22     9    21 1   
    23    10    22 1   
    24    10    23 1   
    25    10    24 1   
    26    11    12 1   
    27    12    13 2   
@<TRIPOS>SUBSTRUCTURE
     1 9FZ         1 TEMP              0 ****  ****    0 ROOT
