@<TRIPOS>MOLECULE
9FZ
   27    27     1     0     0
SMALL
abcg2


@<TRIPOS>ATOM
      1 C7          -4.1440     0.1650    -0.0750 cc         1 9FZ       0.188300
      2 C2          -0.7940    -0.7970    -0.8710 c3         1 9FZ       0.069600
      3 N            2.4180     1.7980     0.5540 n8         1 9FZ      -1.003200
      4 CA           2.6510     0.3630     0.5200 c3         1 9FZ       0.013500
      5 C            4.0780    -0.0750     0.0990 c          1 9FZ       0.692000
      6 O            4.8590     0.8050    -0.3120 o          1 9FZ      -0.732000
      7 CB           1.6210    -0.3190    -0.3810 c3         1 9FZ      -0.050400
      8 C1           0.1800    -0.0640     0.0390 c3         1 9FZ      -0.093400
      9 C8          -2.9820     0.4430    -0.7500 cd         1 9FZ      -0.216000
     10 C9          -5.4100     0.9420    -0.0120 c3         1 9FZ      -0.099400
     11 N4          -2.1760    -0.5980    -0.4750 na         1 9FZ       0.142800
     12 N5          -2.7800    -1.4580     0.3210 nd         1 9FZ      -0.204800
     13 N6          -3.9660    -1.0120     0.5650 nc         1 9FZ      -0.382000
     14 H1          -0.6920    -0.4610    -1.9030 h1         1 9FZ       0.064700
     15 H2          -0.6130    -1.8720    -0.8580 h1         1 9FZ       0.064700
     16 H6           2.4920    -0.0140     1.5380 h1         1 9FZ       0.041700
     17 H8           1.7640     0.0190    -1.4150 hc         1 9FZ       0.041200
     18 H9           1.8170    -1.3930    -0.3810 hc         1 9FZ       0.041200
     19 H10         -0.0320     1.0060     0.0230 hc         1 9FZ       0.055200
     20 H11          0.0300    -0.4030     1.0690 hc         1 9FZ       0.055200
     21 H12         -2.6840     1.2660    -1.3790 h4         1 9FZ       0.164000
     22 H13         -5.7380     1.0840     1.0180 hc         1 9FZ       0.038367
     23 H14         -5.2830     1.9250    -0.4620 hc         1 9FZ       0.038367
     24 H15         -6.2180     0.4370    -0.5440 hc         1 9FZ       0.038367
     25 OXT          4.3260    -1.2940     0.2080 o          1 9FZ      -0.732000
     26 H3           3.0840     2.2170     1.1920 hn         1 9FZ       0.383000
     27 H4           2.6640     2.1840    -0.3510 hn         1 9FZ       0.383000
@<TRIPOS>BOND
     1     1     9 2   
     2     1    10 1   
     3     1    13 1   
     4     2     8 1   
     5     2    11 1   
     6     2    14 1   
     7     2    15 1   
     8     3     4 1   
     9     3    26 1   
    10     3    27 1   
    11     4     5 1   
    12     4     7 1   
    13     4    16 1   
    14     5     6 1   
    15     5    25 1   
    16     7     8 1   
    17     7    17 1   
    18     7    18 1   
    19     8    19 1   
    20     8    20 1   
    21     9    11 1   
    22     9    21 1   
    23    10    22 1   
    24    10    23 1   
    25    10    24 1   
    26    11    12 1   
    27    12    13 2   
@<TRIPOS>SUBSTRUCTURE
     1 9FZ         1 TEMP              0 ****  ****    0 ROOT
