@<TRIPOS>MOLECULE
9G0
   26    27     1     0     0
SMALL
bcc


@<TRIPOS>ATOM
      1 N1          -6.7200    18.1810     4.9630 nv         1 9G0      -0.828200
      2 CB2         -6.2120    18.9440     5.9870 ca         1 9G0       0.180600
      3 CB3         -5.0710    19.7320     5.7820 ca         1 9G0      -0.205000
      4 CB4         -4.5130    20.4590     6.8170 ca         1 9G0      -0.078000
      5 CB5         -5.0710    20.4270     8.0900 ca         1 9G0      -0.181000
      6 CB6         -6.2020    19.6530     8.3010 ca         1 9G0      -0.076000
      7 CB1         -6.7840    18.9140     7.2730 cp         1 9G0      -0.139000
      8 CA1         -8.0080    18.1110     7.5250 cp         1 9G0      -0.103000
      9 CA6         -7.9500    16.7260     7.6930 ca         1 9G0      -0.108000
     10 CA5         -9.1060    15.9990     7.9070 ca         1 9G0      -0.131000
     11 CA4        -10.3360    16.6470     7.9530 ca         1 9G0      -0.191000
     12 CA3        -10.4130    18.0200     7.7900 ca         1 9G0       0.101100
     13 OA3        -11.5700    18.7140     7.8220 oh         1 9G0      -0.476100
     14 CA2         -9.2410    18.7580     7.5750 ca         1 9G0       0.116100
     15 OA2         -9.3790    20.0910     7.4160 oh         1 9G0      -0.479100
     16 H1          -7.6690    17.8600     5.0650 hn         1 9G0       0.403300
     17 H2          -6.5210    18.5010     4.0290 hn         1 9G0       0.403300
     18 H3          -4.6210    19.7630     4.7960 ha         1 9G0       0.132000
     19 H4          -3.6320    21.0590     6.6270 ha         1 9G0       0.129000
     20 H5          -4.6350    20.9950     8.9000 ha         1 9G0       0.136000
     21 H6          -6.6510    19.6130     9.2870 ha         1 9G0       0.136000
     22 H7          -6.9870    16.2330     7.6860 ha         1 9G0       0.143000
     23 H8          -9.0600    14.9260     8.0430 ha         1 9G0       0.135000
     24 H9         -11.2440    16.0770     8.1210 ha         1 9G0       0.132000
     25 H10        -12.3090    18.1140     7.9720 ho         1 9G0       0.419000
     26 H11         -8.5100    20.4880     7.2690 ho         1 9G0       0.430000
@<TRIPOS>BOND
     1     1     2 1   
     2     1    16 1   
     3     1    17 1   
     4     2     3 ar  
     5     2     7 ar  
     6     3     4 ar  
     7     3    18 1   
     8     4     5 ar  
     9     4    19 1   
    10     5     6 ar  
    11     5    20 1   
    12     6     7 ar  
    13     6    21 1   
    14     7     8 1   
    15     8     9 ar  
    16     8    14 ar  
    17     9    10 ar  
    18     9    22 1   
    19    10    11 ar  
    20    10    23 1   
    21    11    12 ar  
    22    11    24 1   
    23    12    13 1   
    24    12    14 ar  
    25    13    25 1   
    26    14    15 1   
    27    15    26 1   
@<TRIPOS>SUBSTRUCTURE
     1 9G0         1 TEMP              0 ****  ****    0 ROOT
