@<TRIPOS>MOLECULE
9G0
   26    27     1     0     0
SMALL
No Charge or Current Charge


@<TRIPOS>ATOM
      1 N1          -6.5630    18.1130     4.9570 nv         1 9G0      -1.077000
      2 CB2         -6.1100    18.8950     5.9850 ca         1 9G0       0.319000
      3 CB3         -4.9410    19.6480     5.7920 ca         1 9G0      -0.187000
      4 CB4         -4.4520    20.4760     6.8150 ca         1 9G0      -0.060000
      5 CB5         -5.1360    20.5520     8.0380 ca         1 9G0      -0.163000
      6 CB6         -6.3070    19.8020     8.2370 ca         1 9G0      -0.058000
      7 CB1         -6.8180    18.9640     7.2160 cp         1 9G0      -0.139000
      8 CA1         -8.0690    18.1760     7.4630 cp         1 9G0      -0.103000
      9 CA6         -8.0230    16.7620     7.4800 ca         1 9G0      -0.090000
     10 CA5         -9.1780    16.0010     7.7230 ca         1 9G0      -0.113000
     11 CA4        -10.4060    16.6420     7.9560 ca         1 9G0      -0.173000
     12 CA3        -10.4820    18.0450     7.9460 ca         1 9G0       0.101100
     13 OA3        -11.6930    18.6460     8.1720 oh         1 9G0      -0.515100
     14 CA2         -9.3160    18.8160     7.6990 ca         1 9G0       0.116100
     15 OA2         -9.3880    20.1840     7.6670 oh         1 9G0      -0.518100
     16 H1          -7.4810    17.6840     5.0390 hn         1 9G0       0.458500
     17 H2          -6.1700    18.2190     4.0250 hn         1 9G0       0.458500
     18 H3          -4.4070    19.5930     4.8480 ha         1 9G0       0.114000
     19 H4          -3.5450    21.0570     6.6600 ha         1 9G0       0.111000
     20 H5          -4.7570    21.1900     8.8340 ha         1 9G0       0.118000
     21 H6          -6.8210    19.8620     9.1950 ha         1 9G0       0.118000
     22 H7          -7.0770    16.2530     7.3080 ha         1 9G0       0.125000
     23 H8          -9.1200    14.9150     7.7330 ha         1 9G0       0.117000
     24 H9         -11.2940    16.0420     8.1440 ha         1 9G0       0.114000
     25 H10        -12.3660    17.9480     8.3180 ho         1 9G0       0.458000
     26 H11         -8.4960    20.5190     7.4380 ho         1 9G0       0.469000
@<TRIPOS>BOND
     1     1     2 1   
     2     1    16 1   
     3     1    17 1   
     4     2     3 ar  
     5     2     7 ar  
     6     3     4 ar  
     7     3    18 1   
     8     4     5 ar  
     9     4    19 1   
    10     5     6 ar  
    11     5    20 1   
    12     6     7 ar  
    13     6    21 1   
    14     7     8 1   
    15     8     9 ar  
    16     8    14 ar  
    17     9    10 ar  
    18     9    22 1   
    19    10    11 ar  
    20    10    23 1   
    21    11    12 ar  
    22    11    24 1   
    23    12    13 1   
    24    12    14 ar  
    25    13    25 1   
    26    14    15 1   
    27    15    26 1   
@<TRIPOS>SUBSTRUCTURE
     1 9G0         1 TEMP              0 ****  ****    0 ROOT
