@<TRIPOS>MOLECULE
9G2
   30    30     1     0     0
SMALL
No Charge or Current Charge


@<TRIPOS>ATOM
      1 C2          -0.4150     0.8980     0.6830 c3         1 9G2       0.068600
      2 C8          -2.6420    -0.3190     0.4590 cc         1 9G2      -0.214000
      3 N6          -3.5610     1.1920    -0.9170 nd         1 9G2      -0.380000
      4 N            2.9550    -1.9720    -0.2990 n8         1 9G2      -1.003200
      5 CA           3.1620    -0.4790    -0.3910 c3         1 9G2       0.014500
      6 C            4.6040     0.0490     0.0020 c          1 9G2       0.692000
      7 O            5.0940    -0.3260     1.0600 o          1 9G2      -0.732000
      8 C1           0.6310     0.0870    -0.1140 c3         1 9G2      -0.093400
      9 C10         -6.1570    -0.2050     0.5770 c3         1 9G2      -0.085100
     10 C7          -3.7650     0.0030    -0.2480 cd         1 9G2       0.186300
     11 N4          -1.7870     0.7170     0.1840 na         1 9G2       0.143800
     12 N5          -2.3580     1.6290    -0.6550 nc         1 9G2      -0.205800
     13 H1          -0.3900     0.5920     1.7360 h1         1 9G2       0.065200
     14 H2          -0.1620     1.9650     0.6390 h1         1 9G2       0.065200
     15 H3          -4.8780    -1.8190    -0.0790 hc         1 9G2       0.044200
     16 H4          -5.4180    -0.7670    -1.3770 hc         1 9G2       0.044200
     17 H5          -2.3990    -1.1560     1.0980 h4         1 9G2       0.164000
     18 H9           3.0220    -0.2100    -1.4470 h1         1 9G2       0.041700
     19 H13          0.3620    -0.9750    -0.0710 hc         1 9G2       0.055200
     20 H14          0.5890     0.3870    -1.1680 hc         1 9G2       0.055200
     21 H15         -5.8340    -0.2270     1.6250 hc         1 9G2       0.031700
     22 H16         -6.3910     0.8330     0.3090 hc         1 9G2       0.031700
     23 H17         -7.0740    -0.7990     0.4860 hc         1 9G2       0.031700
     24 OXT          5.2190     0.7190    -0.8170 o          1 9G2      -0.732000
     25 CB           2.0740     0.2810     0.4160 c3         1 9G2      -0.050400
     26 H6           3.6530    -2.4420    -0.8880 hn         1 9G2       0.383000
     27 H11          2.1220    -0.0200     1.4700 hc         1 9G2       0.040700
     28 H12          2.3090     1.3530     0.3880 hc         1 9G2       0.040700
     29 C9          -5.0550    -0.7690    -0.3420 c3         1 9G2      -0.085700
     30 H7           3.2130    -2.2730     0.6490 hn         1 9G2       0.383000
@<TRIPOS>BOND
     1     1     8 1   
     2     1    11 1   
     3     1    13 1   
     4     1    14 1   
     5     2    10 2   
     6     2    11 1   
     7     2    17 1   
     8     3    10 1   
     9     3    12 2   
    10     4     5 1   
    11     4    26 1   
    12     4    30 1   
    13     5     6 1   
    14     5    18 1   
    15     5    25 1   
    16     6     7 1   
    17     6    24 1   
    18     8    19 1   
    19     8    20 1   
    20     8    25 1   
    21     9    21 1   
    22     9    22 1   
    23     9    23 1   
    24     9    29 1   
    25    10    29 1   
    26    11    12 1   
    27    15    29 1   
    28    16    29 1   
    29    25    27 1   
    30    25    28 1   
@<TRIPOS>SUBSTRUCTURE
     1 9G2         1 TEMP              0 ****  ****    0 ROOT
