@<TRIPOS>MOLECULE
9G2
   30    30     1     0     0
SMALL
abcg2


@<TRIPOS>ATOM
      1 C2          -0.3770     0.8420     0.7070 c3         1 9G2       0.068600
      2 C8          -2.5910    -0.3450     0.5440 cc         1 9G2      -0.214000
      3 N6          -3.4540     1.0440    -0.9190 nd         1 9G2      -0.380000
      4 N            2.8760    -1.8890    -0.3050 n8         1 9G2      -1.003200
      5 CA           3.1130    -0.4590    -0.4280 c3         1 9G2       0.014500
      6 C            4.5220     0.0240     0.0000 c          1 9G2       0.692000
      7 O            5.2700    -0.7970     0.5660 o          1 9G2      -0.732000
      8 C1           0.6260     0.0310    -0.1020 c3         1 9G2      -0.093400
      9 C10         -6.1200    -0.0940     0.4690 c3         1 9G2      -0.085100
     10 C7          -3.7040    -0.0830    -0.2160 cd         1 9G2       0.186300
     11 N4          -1.7400     0.6530     0.2500 na         1 9G2       0.143800
     12 N5          -2.2710     1.4730    -0.6350 nc         1 9G2      -0.205800
     13 H1          -0.3360     0.5670     1.7610 h1         1 9G2       0.065200
     14 H2          -0.1650     1.9090     0.6380 h1         1 9G2       0.065200
     15 H3          -4.8680    -1.8150     0.1230 hc         1 9G2       0.044200
     16 H4          -5.2910    -0.9390    -1.3310 hc         1 9G2       0.044200
     17 H5          -2.3580    -1.1320     1.2420 h4         1 9G2       0.164000
     18 H9           2.9930    -0.1990    -1.4870 h1         1 9G2       0.041700
     19 H13          0.4070    -1.0330    -0.0020 hc         1 9G2       0.055200
     20 H14          0.5190     0.2820    -1.1620 hc         1 9G2       0.055200
     21 H15         -5.8740     0.0130     1.5260 hc         1 9G2       0.031700
     22 H16         -6.2920     0.9030     0.0620 hc         1 9G2       0.031700
     23 H17         -7.0540    -0.6510     0.3970 hc         1 9G2       0.031700
     24 OXT          4.7900     1.2180    -0.2550 o          1 9G2      -0.732000
     25 CB           2.0500     0.3160     0.3530 c3         1 9G2      -0.050400
     26 H6           3.5620    -2.3790    -0.8670 hn         1 9G2       0.383000
     27 H11          2.1460     0.0790     1.4200 hc         1 9G2       0.040700
     28 H12          2.2540     1.3850     0.2570 hc         1 9G2       0.040700
     29 C9          -5.0020    -0.8120    -0.2850 c3         1 9G2      -0.085700
     30 H7           3.0940    -2.1650     0.6460 hn         1 9G2       0.383000
@<TRIPOS>BOND
     1     1     8 1   
     2     1    11 1   
     3     1    13 1   
     4     1    14 1   
     5     2    10 2   
     6     2    11 1   
     7     2    17 1   
     8     3    10 1   
     9     3    12 2   
    10     4     5 1   
    11     4    26 1   
    12     4    30 1   
    13     5     6 1   
    14     5    18 1   
    15     5    25 1   
    16     6     7 1   
    17     6    24 1   
    18     8    19 1   
    19     8    20 1   
    20     8    25 1   
    21     9    21 1   
    22     9    22 1   
    23     9    23 1   
    24     9    29 1   
    25    10    29 1   
    26    11    12 1   
    27    15    29 1   
    28    16    29 1   
    29    25    27 1   
    30    25    28 1   
@<TRIPOS>SUBSTRUCTURE
     1 9G2         1 TEMP              0 ****  ****    0 ROOT
