@<TRIPOS>MOLECULE
9G3
   40    42     1     0     0
SMALL
No Charge or Current Charge


@<TRIPOS>ATOM
      1 C1           4.2710    -1.0040     0.8760 ca         1 9G3       0.158000
      2 C2           4.8880    -0.2030    -0.1000 ca         1 9G3       0.100000
      3 C3           4.1580     0.8220    -0.7230 ca         1 9G3      -0.073000
      4 C4           2.8120     1.0620    -0.3850 ca         1 9G3       0.176400
      5 C5           2.2010     0.2570     0.5920 ca         1 9G3      -0.173600
      6 C6           2.9310    -0.7770     1.2230 ca         1 9G3      -0.078000
      7 C8           0.8830     2.2890    -0.6960 cc         1 9G3       0.513800
      8 C10          0.7820     0.5140     0.9440 c          1 9G3       0.578600
      9 C15         -2.2650     0.9710    -0.1530 c          1 9G3       0.565100
     10 C16         -3.6710     0.9400     0.4590 c3         1 9G3      -0.181400
     11 C17         -4.7450     0.1220    -0.2990 c6         1 9G3       0.187500
     12 C20         -5.3610    -2.1800    -0.9450 c6         1 9G3       0.161800
     13 C21         -6.7950    -2.0000    -0.3900 c6         1 9G3      -0.077400
     14 C22         -7.2200    -0.5120    -0.4320 c6         1 9G3      -0.072400
     15 C23         -6.1650     0.3680     0.2810 c6         1 9G3      -0.074400
     16 N7           2.1560     2.1020    -1.0570 nd         1 9G3      -0.613100
     17 N9           0.1820     1.5710     0.2650 n          1 9G3      -0.322300
     18 O11          0.1820    -0.1570     1.7750 o          1 9G3      -0.524000
     19 F12          4.9600    -1.9970     1.4860 f          1 9G3      -0.156000
     20 Cl1          6.5720    -0.4690    -0.5530 cl         1 9G3      -0.156000
     21 O18         -1.9620     0.3110    -1.1410 o          1 9G3      -0.506100
     22 N19         -4.3940    -1.3120    -0.2310 n7         1 9G3      -0.862400
     23 H1           4.6390     1.4380    -1.4770 ha         1 9G3       0.152000
     24 H2           2.4660    -1.4060     1.9790 ha         1 9G3       0.158000
     25 H3           0.3050     3.0710    -1.1730 h5         1 9G3       0.048800
     26 H4          -1.4730     2.9220     0.2480 h1         1 9G3       0.082700
     27 H5          -1.4280     1.8310     1.6320 h1         1 9G3       0.082700
     28 H6          -3.5710     0.6290     1.5050 hc         1 9G3       0.074700
     29 H7          -3.9750     1.9840     0.5970 hc         1 9G3       0.074700
     30 H8          -4.7420     0.4420    -1.3520 h1         1 9G3       0.027700
     31 H9          -5.0550    -3.2320    -0.8430 h1         1 9G3       0.031700
     32 H10         -5.3500    -1.9330    -2.0170 h1         1 9G3       0.031700
     33 H11         -7.5000    -2.6100    -0.9710 hc         1 9G3       0.047200
     34 H12         -6.8380    -2.3690     0.6440 hc         1 9G3       0.047200
     35 H13         -7.3290    -0.1870    -1.4770 hc         1 9G3       0.039200
     36 H14         -8.2030    -0.3850     0.0420 hc         1 9G3       0.039200
     37 H15         -6.1710     0.1490     1.3580 hc         1 9G3       0.043200
     38 H16         -6.4360     1.4280     0.1760 hc         1 9G3       0.043200
     39 H17         -3.4700    -1.4310    -0.6670 hn         1 9G3       0.425000
     40 C14         -1.2490     1.8920     0.5520 c3         1 9G3      -0.020000
@<TRIPOS>BOND
     1     1     2 ar  
     2     1     6 ar  
     3     1    19 1   
     4     2     3 ar  
     5     2    20 1   
     6     3     4 ar  
     7     3    23 1   
     8     4     5 ar  
     9     4    16 1   
    10     5     6 ar  
    11     5     8 1   
    12     6    24 1   
    13     7    16 2   
    14     7    17 1   
    15     7    25 1   
    16     8    17 1   
    17     8    18 2   
    18     9    10 1   
    19     9    21 2   
    20     9    40 1   
    21    10    11 1   
    22    10    28 1   
    23    10    29 1   
    24    11    15 1   
    25    11    22 1   
    26    11    30 1   
    27    12    13 1   
    28    12    22 1   
    29    12    31 1   
    30    12    32 1   
    31    13    14 1   
    32    13    33 1   
    33    13    34 1   
    34    14    15 1   
    35    14    35 1   
    36    14    36 1   
    37    15    37 1   
    38    15    38 1   
    39    17    40 1   
    40    22    39 1   
    41    26    40 1   
    42    27    40 1   
@<TRIPOS>SUBSTRUCTURE
     1 9G3         1 TEMP              0 ****  ****    0 ROOT
