@<TRIPOS>MOLECULE
9G3
   40    42     1     0     0
SMALL
bcc


@<TRIPOS>ATOM
      1 C1           4.0870    -1.0230     0.7020 ca         1 9G3       0.122900
      2 C2           4.6960    -0.1820    -0.2340 ca         1 9G3       0.008400
      3 C3           3.9990     0.8730    -0.7730 ca         1 9G3      -0.091000
      4 C4           2.6740     1.1030    -0.3800 ca         1 9G3       0.176400
      5 C5           2.0810     0.2510     0.5600 ca         1 9G3      -0.173600
      6 C6           2.7950    -0.8200     1.1010 ca         1 9G3      -0.096000
      7 C8           0.7910     2.3470    -0.5530 cc         1 9G3       0.513800
      8 C10          0.7010     0.4840     0.9620 c          1 9G3       0.721100
      9 C15         -2.1910     0.8800    -0.0050 c          1 9G3       0.565100
     10 C16         -3.6100     0.9200     0.4800 c3         1 9G3      -0.181400
     11 C17         -4.6030     0.0690    -0.2990 c6         1 9G3       0.187500
     12 C20         -5.2740    -2.2100    -0.7770 c6         1 9G3       0.161800
     13 C21         -6.7160    -1.9310    -0.3830 c6         1 9G3      -0.077400
     14 C22         -7.0450    -0.4590    -0.6040 c6         1 9G3      -0.072400
     15 C23         -6.0300     0.4270     0.1080 c6         1 9G3      -0.074400
     16 N7           1.9970     2.1600    -0.9360 nd         1 9G3      -0.613100
     17 N9           0.1260     1.5940     0.3680 n          1 9G3      -0.389300
     18 O11          0.0740    -0.2020     1.7470 o          1 9G3      -0.599500
     19 F12          4.7910    -2.0360     1.2040 f          1 9G3      -0.120900
     20 CL1          6.3200    -0.4930    -0.6960 cl         1 9G3      -0.064400
     21 O18         -1.7890     0.1540    -0.8810 o          1 9G3      -0.506100
     22 N19         -4.3710    -1.3450    -0.0330 n7         1 9G3      -0.807200
     23 H1           4.4610     1.5270    -1.5000 ha         1 9G3       0.170000
     24 H2           2.3380    -1.4810     1.8270 ha         1 9G3       0.176000
     25 H3           0.2240     3.1720    -0.9670 h5         1 9G3       0.048800
     26 H4          -1.5080     2.8730     0.3150 h1         1 9G3       0.082700
     27 H5          -1.4200     1.8780     1.7500 h1         1 9G3       0.082700
     28 H6          -3.6110     0.6240     1.5360 hc         1 9G3       0.074700
     29 H7          -3.9280     1.9690     0.4780 hc         1 9G3       0.074700
     30 H8          -4.4970     0.3040    -1.3720 h1         1 9G3       0.027700
     31 H9          -5.0150    -3.2480    -0.5580 h1         1 9G3       0.031700
     32 H10         -5.1730    -2.0820    -1.8670 h1         1 9G3       0.031700
     33 H11         -7.3870    -2.5680    -0.9630 hc         1 9G3       0.047200
     34 H12         -6.8590    -2.1880     0.6700 hc         1 9G3       0.047200
     35 H13         -7.0270    -0.2400    -1.6770 hc         1 9G3       0.039200
     36 H14         -8.0560    -0.2320    -0.2570 hc         1 9G3       0.039200
     37 H15         -6.1310     0.3080     1.1930 hc         1 9G3       0.043200
     38 H16         -6.2160     1.4800    -0.1170 hc         1 9G3       0.043200
     39 H17         -3.4220    -1.5780    -0.2930 hn         1 9G3       0.369800
     40 C14         -1.2580     1.8720     0.6720 c3         1 9G3      -0.020000
@<TRIPOS>BOND
     1     1     2 ar  
     2     1     6 ar  
     3     1    19 1   
     4     2     3 ar  
     5     2    20 1   
     6     3     4 ar  
     7     3    23 1   
     8     4     5 ar  
     9     4    16 1   
    10     5     6 ar  
    11     5     8 1   
    12     6    24 1   
    13     7    16 2   
    14     7    17 1   
    15     7    25 1   
    16     8    17 1   
    17     8    18 2   
    18     9    10 1   
    19     9    21 2   
    20     9    40 1   
    21    10    11 1   
    22    10    28 1   
    23    10    29 1   
    24    11    15 1   
    25    11    22 1   
    26    11    30 1   
    27    12    13 1   
    28    12    22 1   
    29    12    31 1   
    30    12    32 1   
    31    13    14 1   
    32    13    33 1   
    33    13    34 1   
    34    14    15 1   
    35    14    35 1   
    36    14    36 1   
    37    15    37 1   
    38    15    38 1   
    39    17    40 1   
    40    22    39 1   
    41    26    40 1   
    42    27    40 1   
@<TRIPOS>SUBSTRUCTURE
     1 9G3         1 TEMP              0 ****  ****    0 ROOT
