@<TRIPOS>MOLECULE
9G5
   57    61     1     0     0
SMALL
abcg2


@<TRIPOS>ATOM
      1 N1           3.3640    -0.5350    -0.9050 n          1 9G5      -0.402800
      2 C4           3.5620    -0.3860     0.5280 c3         1 9G5       0.104000
      3 C5           4.9470     0.0980     0.9340 c3         1 9G5       0.151800
      4 C6           2.5750     0.2810    -1.6270 c          1 9G5       0.607700
      5 C7           2.0790     1.5420    -0.9850 ca         1 9G5      -0.136600
      6 C8           2.9370     2.6020    -0.7100 ca         1 9G5      -0.074000
      7 C10          1.0710     3.9190     0.0460 ca         1 9G5      -0.077000
      8 C13         -1.2160     3.0000     0.0590 cc         1 9G5       0.214500
      9 C15         -3.3110     3.5860     0.5160 cd         1 9G5      -0.134000
     10 C20         -3.9670    -2.3520     0.0890 ca         1 9G5       0.068600
     11 C21         -3.3180    -3.5610    -0.0590 ca         1 9G5      -0.146000
     12 C22         -1.9280    -3.5630    -0.0980 ca         1 9G5      -0.060000
     13 C24         -1.8860    -1.1510     0.1770 ca         1 9G5      -0.035000
     14 C25         -5.5980    -0.7900     0.3450 c          1 9G5       0.562200
     15 N2          -5.3250    -2.1170     0.1750 ns         1 9G5      -0.401100
     16 C23         -1.2360    -2.3680     0.0260 ca         1 9G5       0.082000
     17 CL           0.5030    -2.3800    -0.0080 cl         1 9G5      -0.208000
     18 C19         -3.2720    -1.1330     0.1900 ca         1 9G5      -0.090800
     19 C18         -4.2780    -0.0900     0.3330 cd         1 9G5      -0.127400
     20 C16         -3.2420     2.2250     0.3520 cc         1 9G5       0.154800
     21 C14         -2.0060     4.0840     0.3330 cd         1 9G5      -0.178000
     22 O1          -1.9640     1.8830     0.0720 os         1 9G5      -0.226000
     23 C11          0.2000     2.8600    -0.2250 ca         1 9G5      -0.137500
     24 C9           2.4250     3.7900    -0.2060 ca         1 9G5      -0.117000
     25 C12          0.7160     1.6800    -0.7630 ca         1 9G5      -0.051000
     26 O            2.2540     0.0400    -2.7840 o          1 9G5      -0.590100
     27 C3           3.8790    -1.7270    -1.5750 c3         1 9G5       0.099000
     28 C2           4.9980    -2.4200    -0.8170 c3         1 9G5      -0.091400
     29 C1           6.1630    -1.5230    -0.4070 c3         1 9G5       0.171800
     30 N            5.9830    -0.9110     0.8990 n3         1 9G5      -0.720600
     31 C            7.2270    -0.3600     1.3930 c3         1 9G5       0.153100
     32 H1           2.8330     0.3290     0.9040 h1         1 9G5       0.059700
     33 H2           3.3340    -1.3310     1.0260 h1         1 9G5       0.059700
     34 H3           5.2120     0.9750     0.3170 h1         1 9G5       0.035200
     35 H4           4.8720     0.4600     1.9640 h1         1 9G5       0.035200
     36 H5           3.9990     2.5080    -0.8950 ha         1 9G5       0.122000
     37 H6           0.6910     4.8420     0.4650 ha         1 9G5       0.119000
     38 H7          -4.2020     4.1500     0.7410 ha         1 9G5       0.148000
     39 H8          -5.2540     1.7140     0.5640 ha         1 9G5       0.210000
     40 H9          -3.8680    -4.4890    -0.1420 ha         1 9G5       0.126000
     41 H10         -1.3940    -4.4960    -0.2210 ha         1 9G5       0.131000
     42 H11         -1.3090    -0.2510     0.3010 ha         1 9G5       0.142000
     43 H12         -6.0340    -2.8330     0.1380 hn         1 9G5       0.342500
     44 H13         -1.6910     5.1130     0.3810 ha         1 9G5       0.147000
     45 H14          3.0910     4.6170     0.0030 ha         1 9G5       0.120000
     46 H15          0.0600     0.8590    -1.0190 ha         1 9G5       0.138000
     47 H16          3.0650    -2.4380    -1.7490 h1         1 9G5       0.054200
     48 H17          4.2520    -1.4300    -2.5550 h1         1 9G5       0.054200
     49 H18          4.6230    -2.9430     0.0650 hc         1 9G5       0.055200
     50 H19          5.3720    -3.1970    -1.4860 hc         1 9G5       0.055200
     51 H20          7.0620    -2.1390    -0.3480 h1         1 9G5       0.034200
     52 H21          6.3530    -0.7720    -1.1940 h1         1 9G5       0.034200
     53 H23          7.6100     0.4700     0.7800 h1         1 9G5       0.031700
     54 H24          7.0920     0.0160     2.4080 h1         1 9G5       0.031700
     55 H25          7.9950    -1.1340     1.4250 h1         1 9G5       0.031700
     56 C17         -4.2780     1.2600     0.4230 ce         1 9G5      -0.156800
     57 O2          -6.7040    -0.3000     0.4650 o          1 9G5      -0.525000
@<TRIPOS>BOND
     1     1     2 1   
     2     1     4 1   
     3     1    27 1   
     4     2     3 1   
     5     2    32 1   
     6     2    33 1   
     7     3    30 1   
     8     3    34 1   
     9     3    35 1   
    10     4     5 1   
    11     4    26 2   
    12     5     6 ar  
    13     5    25 ar  
    14     6    24 ar  
    15     6    36 1   
    16     7    23 ar  
    17     7    24 ar  
    18     7    37 1   
    19     8    21 2   
    20     8    22 1   
    21     8    23 1   
    22     9    20 2   
    23     9    21 1   
    24     9    38 1   
    25    10    11 ar  
    26    10    15 1   
    27    10    18 ar  
    28    11    12 ar  
    29    11    40 1   
    30    12    16 ar  
    31    12    41 1   
    32    13    16 ar  
    33    13    18 ar  
    34    13    42 1   
    35    14    15 1   
    36    14    19 1   
    37    14    57 2   
    38    15    43 1   
    39    16    17 1   
    40    18    19 1   
    41    19    56 2   
    42    20    22 1   
    43    20    56 1   
    44    21    44 1   
    45    23    25 ar  
    46    24    45 1   
    47    25    46 1   
    48    27    28 1   
    49    27    47 1   
    50    27    48 1   
    51    28    29 1   
    52    28    49 1   
    53    28    50 1   
    54    29    30 1   
    55    29    51 1   
    56    29    52 1   
    57    30    31 1   
    58    31    53 1   
    59    31    54 1   
    60    31    55 1   
    61    39    56 1   
@<TRIPOS>SUBSTRUCTURE
     1 9G5         1 TEMP              0 ****  ****    0 ROOT
