@<TRIPOS>MOLECULE
9G5
   57    61     1     0     0
SMALL
No Charge or Current Charge


@<TRIPOS>ATOM
      1 N1           3.6790    -0.6500    -0.6960 n          1 9G5      -0.402800
      2 C4           4.1610    -0.2900     0.6670 c3         1 9G5       0.104000
      3 C5           5.5810     0.3320     0.7020 c3         1 9G5       0.151800
      4 C6           2.4410    -0.1520    -1.1800 c          1 9G5       0.607700
      5 C7           1.9550     1.2100    -0.7340 ca         1 9G5      -0.136600
      6 C8           2.8330     2.3020    -0.5720 ca         1 9G5      -0.074000
      7 C10          0.9690     3.7330     0.0690 ca         1 9G5      -0.077000
      8 C13         -1.3670     2.8100     0.1420 cc         1 9G5       0.214500
      9 C15         -3.3450     3.4910     0.8690 cd         1 9G5      -0.134000
     10 C20         -4.5460    -2.2280    -0.2150 ca         1 9G5       0.068600
     11 C21         -3.9160    -3.4750    -0.1600 ca         1 9G5      -0.146000
     12 C22         -2.5860    -3.5140     0.3100 ca         1 9G5      -0.060000
     13 C24         -2.6130    -1.0840     0.6800 ca         1 9G5      -0.035000
     14 C25         -6.1540    -0.5760    -0.4980 c          1 9G5       0.562200
     15 N2          -5.8440    -1.9060    -0.5860 ns         1 9G5      -0.401100
     16 C23         -1.9440    -2.3250     0.7330 ca         1 9G5       0.082000
     17 Cl          -0.2950    -2.3930     1.3430 cl         1 9G5      -0.208000
     18 C19         -3.9200    -1.0500     0.1600 ca         1 9G5      -0.090800
     19 C18         -4.8820     0.0600    -0.0290 cd         1 9G5      -0.127400
     20 C16         -3.4880     2.2520     0.2960 cc         1 9G5       0.154800
     21 C14         -1.9810     3.8490     0.7830 cd         1 9G5      -0.178000
     22 O1          -2.2700     1.8330    -0.1860 os         1 9G5      -0.226000
     23 C11          0.0700     2.6610    -0.1080 ca         1 9G5      -0.137500
     24 C9           2.3410     3.5540    -0.1700 ca         1 9G5      -0.117000
     25 C12          0.5750     1.4100    -0.5240 ca         1 9G5      -0.051000
     26 O            1.8000    -0.7820    -2.0140 o          1 9G5      -0.590100
     27 C3           4.2330    -1.8790    -1.3210 c3         1 9G5       0.099000
     28 C2           5.5450    -2.4470    -0.7360 c3         1 9G5      -0.091400
     29 C1           6.7130    -1.4440    -0.6490 c3         1 9G5       0.171800
     30 N            6.7210    -0.6170     0.5820 n3         1 9G5      -0.720600
     31 C            8.0190     0.0690     0.7750 c3         1 9G5       0.153100
     32 H1           3.4670     0.4190     1.1340 h1         1 9G5       0.059700
     33 H2           4.1460    -1.1830     1.3050 h1         1 9G5       0.059700
     34 H3           5.6530     1.0940    -0.0840 h1         1 9G5       0.035200
     35 H4           5.6690     0.8620     1.6610 h1         1 9G5       0.035200
     36 H5           3.8930     2.1930    -0.7840 ha         1 9G5       0.122000
     37 H6           0.6140     4.7130     0.3800 ha         1 9G5       0.119000
     38 H7          -4.1380     4.0740     1.3270 ha         1 9G5       0.148000
     39 H8          -5.5780     2.0140     0.0270 ha         1 9G5       0.210000
     40 H9          -4.4330    -4.3820    -0.4640 ha         1 9G5       0.126000
     41 H10         -2.0560    -4.4620     0.3640 ha         1 9G5       0.131000
     42 H11         -2.1220    -0.1970     1.0580 ha         1 9G5       0.142000
     43 H12         -6.5210    -2.5960    -0.8880 hn         1 9G5       0.342500
     44 H13         -1.5190     4.7490     1.1720 ha         1 9G5       0.147000
     45 H14          3.0260     4.3900    -0.0480 ha         1 9G5       0.120000
     46 H15         -0.1050     0.5720    -0.6660 ha         1 9G5       0.138000
     47 H16          3.4710    -2.6680    -1.2720 h1         1 9G5       0.054200
     48 H17          4.4030    -1.6610    -2.3840 h1         1 9G5       0.054200
     49 H18          5.3610    -2.8850     0.2520 hc         1 9G5       0.055200
     50 H19          5.8580    -3.2780    -1.3790 hc         1 9G5       0.055200
     51 H20          7.6380    -2.0360    -0.6780 h1         1 9G5       0.034200
     52 H21          6.7170    -0.8080    -1.5460 h1         1 9G5       0.034200
     53 H23          8.2030     0.7930    -0.0290 h1         1 9G5       0.031700
     54 H24          8.0370     0.6060     1.7330 h1         1 9G5       0.031700
     55 H25          8.8450    -0.6550     0.7820 h1         1 9G5       0.031700
     56 C17         -4.6700     1.4180     0.1280 ce         1 9G5      -0.156800
     57 O2          -7.2250    -0.0560    -0.7720 o          1 9G5      -0.525000
@<TRIPOS>BOND
     1     1     2 1   
     2     1     4 1   
     3     1    27 1   
     4     2     3 1   
     5     2    32 1   
     6     2    33 1   
     7     3    30 1   
     8     3    34 1   
     9     3    35 1   
    10     4     5 1   
    11     4    26 2   
    12     5     6 ar  
    13     5    25 ar  
    14     6    24 ar  
    15     6    36 1   
    16     7    23 ar  
    17     7    24 ar  
    18     7    37 1   
    19     8    21 2   
    20     8    22 1   
    21     8    23 1   
    22     9    20 2   
    23     9    21 1   
    24     9    38 1   
    25    10    11 ar  
    26    10    15 1   
    27    10    18 ar  
    28    11    12 ar  
    29    11    40 1   
    30    12    16 ar  
    31    12    41 1   
    32    13    16 ar  
    33    13    18 ar  
    34    13    42 1   
    35    14    15 1   
    36    14    19 1   
    37    14    57 2   
    38    15    43 1   
    39    16    17 1   
    40    18    19 1   
    41    19    56 2   
    42    20    22 1   
    43    20    56 1   
    44    21    44 1   
    45    23    25 ar  
    46    24    45 1   
    47    25    46 1   
    48    27    28 1   
    49    27    47 1   
    50    27    48 1   
    51    28    29 1   
    52    28    49 1   
    53    28    50 1   
    54    29    30 1   
    55    29    51 1   
    56    29    52 1   
    57    30    31 1   
    58    31    53 1   
    59    31    54 1   
    60    31    55 1   
    61    39    56 1   
@<TRIPOS>SUBSTRUCTURE
     1 9G5         1 TEMP              0 ****  ****    0 ROOT
