@<TRIPOS>MOLECULE
9G6
   54    58     1     0     0
SMALL
No Charge or Current Charge


@<TRIPOS>ATOM
      1 C12         -4.6740    -1.9660    -1.0920 c6         1 9G6       0.169800
      2 C13         -4.2350    -3.4610    -1.0940 c6         1 9G6       0.146100
      3 C15         -5.0610    -3.7800     1.1450 c6         1 9G6       0.146100
      4 C19          1.7470    -0.9650    -1.1010 c3         1 9G6       0.225800
      5 N22          4.5890     0.4170     0.7490 nc         1 9G6      -0.631100
      6 C23          5.9550     0.2000     0.5810 ca         1 9G6       0.145400
      7 C24          6.3370    -0.7590    -0.3460 ca         1 9G6      -0.192000
      8 C27          8.3060     0.6130     1.0610 ca         1 9G6      -0.100000
      9 C29          7.6830    -1.0620    -0.6000 ca         1 9G6      -0.062000
     10 C31         -0.3740     4.7670    -0.1380 c3         1 9G6       0.141900
     11 C1          -1.4180     2.5200    -0.0860 ca         1 9G6       0.158100
     12 C2          -1.2600     1.1240    -0.2410 ca         1 9G6       0.110100
     13 C3          -2.3700     0.2710    -0.0540 ca         1 9G6      -0.147000
     14 C4          -3.6350     0.8070     0.2790 ca         1 9G6      -0.150000
     15 C5          -3.7890     2.2030     0.4490 ca         1 9G6       0.057000
     16 C6          -2.6820     3.0480     0.2610 ca         1 9G6      -0.187000
     17 C7          -4.7820    -0.0080     0.4730 ca         1 9G6       0.383900
     18 N8          -5.9670     0.5270     0.8270 nb         1 9G6      -0.263000
     19 C9          -6.0080     1.8640     0.9690 ca         1 9G6       0.154900
     20 N10         -4.9850     2.7230     0.7940 nb         1 9G6      -0.193000
     21 N11         -4.7630    -1.4110     0.2970 nh         1 9G6      -0.774300
     22 O14         -5.0870    -4.2450    -0.2260 os         1 9G6      -0.445000
     23 C16         -5.5300    -2.2970     1.2350 c6         1 9G6       0.169800
     24 C18          0.2540    -0.7790    -0.7370 c3         1 9G6       0.148600
     25 N20          2.6390    -0.3690    -0.0900 nu         1 9G6      -0.874400
     26 C21          3.9890    -0.4200    -0.0880 cd         1 9G6       0.647100
     27 S25          4.9540    -1.5050    -1.1220 ss         1 9G6      -0.053200
     28 C26          6.9450     0.8970     1.2950 ca         1 9G6      -0.080000
     29 C28          8.6750    -0.3650     0.1140 ca         1 9G6      -0.121000
     30 O30         -0.3130     3.3360    -0.2750 os         1 9G6      -0.319100
     31 H1          -3.9590    -1.3890    -1.6970 h1         1 9G6       0.059450
     32 H2          -5.6520    -1.8860    -1.5890 h1         1 9G6       0.059450
     33 H3          -4.2900    -3.8640    -2.1150 h1         1 9G6       0.052700
     34 H4          -3.1930    -3.5440    -0.7510 h1         1 9G6       0.052700
     35 H5          -5.7190    -4.4170     1.7540 h1         1 9G6       0.052700
     36 H6          -4.0390    -3.8730     1.5390 h1         1 9G6       0.052700
     37 H7           1.9520    -2.0410    -1.1960 h1         1 9G6       0.058200
     38 H8           1.9330    -0.5060    -2.0820 h1         1 9G6       0.058200
     39 H10          7.9560    -1.8190    -1.3330 ha         1 9G6       0.120000
     40 H11         -1.0860     5.1980    -0.8530 h1         1 9G6       0.047700
     41 H12         -0.6780     5.0500     0.8780 h1         1 9G6       0.047700
     42 H13          0.6110     5.2080    -0.3330 h1         1 9G6       0.047700
     43 H14         -2.2590    -0.8030    -0.1530 ha         1 9G6       0.128000
     44 H15         -2.8230     4.1160     0.3930 ha         1 9G6       0.144000
     45 H16         -6.9660     2.2960     1.2520 h5         1 9G6       0.046100
     46 H17         -6.6050    -2.2530     1.0040 h1         1 9G6       0.059450
     47 H18         -5.4020    -1.9540     2.2720 h1         1 9G6       0.059450
     48 H19         -0.3650    -1.2000    -1.5400 h1         1 9G6       0.049200
     49 H20          0.0400    -1.3240     0.1910 h1         1 9G6       0.049200
     50 H21          2.2870     0.4210     0.4460 hn         1 9G6       0.514000
     51 H22          6.6600     1.6500     2.0240 ha         1 9G6       0.129000
     52 H23          9.7260    -0.5820    -0.0640 ha         1 9G6       0.114000
     53 O17         -0.0080     0.6310    -0.5720 os         1 9G6      -0.333100
     54 H9           9.0740     1.1510     1.6120 ha         1 9G6       0.114000
@<TRIPOS>BOND
     1     1     2 1   
     2     1    21 1   
     3     1    31 1   
     4     1    32 1   
     5     2    22 1   
     6     2    33 1   
     7     2    34 1   
     8     3    22 1   
     9     3    23 1   
    10     3    35 1   
    11     3    36 1   
    12     4    24 1   
    13     4    25 1   
    14     4    37 1   
    15     4    38 1   
    16     5     6 1   
    17     5    26 2   
    18     6     7 ar  
    19     6    28 ar  
    20     7     9 ar  
    21     7    27 1   
    22     8    28 ar  
    23     8    29 ar  
    24     8    54 1   
    25     9    29 ar  
    26     9    39 1   
    27    10    30 1   
    28    10    40 1   
    29    10    41 1   
    30    10    42 1   
    31    11    12 ar  
    32    11    16 ar  
    33    11    30 1   
    34    12    13 ar  
    35    12    53 1   
    36    13    14 ar  
    37    13    43 1   
    38    14    15 ar  
    39    14    17 ar  
    40    15    16 ar  
    41    15    20 ar  
    42    16    44 1   
    43    17    18 ar  
    44    17    21 1   
    45    18    19 ar  
    46    19    20 ar  
    47    19    45 1   
    48    21    23 1   
    49    23    46 1   
    50    23    47 1   
    51    24    48 1   
    52    24    49 1   
    53    24    53 1   
    54    25    26 1   
    55    25    50 1   
    56    26    27 1   
    57    28    51 1   
    58    29    52 1   
@<TRIPOS>SUBSTRUCTURE
     1 9G6         1 TEMP              0 ****  ****    0 ROOT
