@<TRIPOS>MOLECULE
9G6
   54    58     1     0     0
SMALL
abcg2


@<TRIPOS>ATOM
      1 C12         -4.3440    -1.9310    -1.0320 c6         1 9G6       0.169800
      2 C13         -3.8240    -3.3510    -0.9330 c6         1 9G6       0.146100
      3 C15         -5.1490    -3.7390     0.9440 c6         1 9G6       0.146100
      4 C19          1.7370    -0.6780    -0.9790 c3         1 9G6       0.225800
      5 N22          4.7140     0.6750     0.6470 nc         1 9G6      -0.631100
      6 C23          6.0170     0.2700     0.5140 ca         1 9G6       0.145400
      7 C24          6.2220    -0.8680    -0.2870 ca         1 9G6      -0.192000
      8 C27          8.3870     0.3640     0.8720 ca         1 9G6      -0.100000
      9 C29          7.4830    -1.3950    -0.5160 ca         1 9G6      -0.062000
     10 C31         -0.6230     4.7080    -0.2890 c3         1 9G6       0.141900
     11 C1          -1.5530     2.5430    -0.1420 ca         1 9G6       0.158100
     12 C2          -1.3210     1.1340    -0.2420 ca         1 9G6       0.110100
     13 C3          -2.3400     0.2550    -0.0020 ca         1 9G6      -0.147000
     14 C4          -3.6320     0.7250     0.3250 ca         1 9G6      -0.150000
     15 C5          -3.8400     2.1040     0.5040 ca         1 9G6       0.057000
     16 C6          -2.7860     3.0050     0.2370 ca         1 9G6      -0.187000
     17 C7          -4.7620    -0.1150     0.5640 ca         1 9G6       0.383900
     18 N8          -5.8650     0.3850     1.0850 nb         1 9G6      -0.263000
     19 C9          -5.9230     1.7090     1.2740 ca         1 9G6       0.154900
     20 N10         -5.0160     2.5940     0.9710 nb         1 9G6      -0.193000
     21 N11         -4.7110    -1.4570     0.3010 nh         1 9G6      -0.774300
     22 O14         -4.7750    -4.2020    -0.3350 os         1 9G6      -0.445000
     23 C16         -5.7080    -2.3270     0.9020 c6         1 9G6       0.169800
     24 C18          0.2850    -0.5780    -0.5820 c3         1 9G6       0.148600
     25 N20          2.5820     0.0250    -0.0400 nu         1 9G6      -0.874400
     26 C21          3.9180    -0.1040    -0.0120 cd         1 9G6       0.647100
     27 S25          4.6890    -1.4260    -0.8890 ss         1 9G6      -0.053200
     28 C26          7.1240     0.8860     1.0980 ca         1 9G6      -0.080000
     29 C28          8.5700    -0.7660     0.0740 ca         1 9G6      -0.121000
     30 O30         -0.4900     3.3030    -0.4080 os         1 9G6      -0.319100
     31 H1          -3.5940    -1.2910    -1.4900 h1         1 9G6       0.059450
     32 H2          -5.2270    -1.9060    -1.6830 h1         1 9G6       0.059450
     33 H3          -3.6150    -3.7410    -1.9300 h1         1 9G6       0.052700
     34 H4          -2.8830    -3.3570    -0.3620 h1         1 9G6       0.052700
     35 H5          -5.9060    -4.4240     1.3290 h1         1 9G6       0.052700
     36 H6          -4.2890    -3.7630     1.6280 h1         1 9G6       0.052700
     37 H7           1.9900    -1.7410    -0.9780 h1         1 9G6       0.058200
     38 H8           1.8730    -0.3090    -2.0020 h1         1 9G6       0.058200
     39 H10          7.6190    -2.2720    -1.1350 ha         1 9G6       0.120000
     40 H11         -1.3790     5.1010    -0.9720 h1         1 9G6       0.047700
     41 H12         -0.8780     5.0030     0.7320 h1         1 9G6       0.047700
     42 H13          0.3440     5.1300    -0.5490 h1         1 9G6       0.047700
     43 H14         -2.1590    -0.8100    -0.0220 ha         1 9G6       0.128000
     44 H15         -2.9840     4.0610     0.3640 ha         1 9G6       0.144000
     45 H16         -6.8480     2.0790     1.7050 h5         1 9G6       0.046100
     46 H17         -6.6500    -2.3080     0.3380 h1         1 9G6       0.059450
     47 H18         -5.9250    -1.9980     1.9170 h1         1 9G6       0.059450
     48 H19         -0.3170    -1.1300    -1.3100 h1         1 9G6       0.049200
     49 H20          0.1260    -1.0220     0.4070 h1         1 9G6       0.049200
     50 H21          2.2360     0.8990     0.3300 hn         1 9G6       0.514000
     51 H22          6.9860     1.7620     1.7180 ha         1 9G6       0.129000
     52 H23          9.5650    -1.1570    -0.0880 ha         1 9G6       0.114000
     53 O17         -0.0640     0.7950    -0.5680 os         1 9G6      -0.333100
     54 H9           9.2470     0.8420     1.3240 ha         1 9G6       0.114000
@<TRIPOS>BOND
     1     1     2 1   
     2     1    21 1   
     3     1    31 1   
     4     1    32 1   
     5     2    22 1   
     6     2    33 1   
     7     2    34 1   
     8     3    22 1   
     9     3    23 1   
    10     3    35 1   
    11     3    36 1   
    12     4    24 1   
    13     4    25 1   
    14     4    37 1   
    15     4    38 1   
    16     5     6 1   
    17     5    26 2   
    18     6     7 ar  
    19     6    28 ar  
    20     7     9 ar  
    21     7    27 1   
    22     8    28 ar  
    23     8    29 ar  
    24     8    54 1   
    25     9    29 ar  
    26     9    39 1   
    27    10    30 1   
    28    10    40 1   
    29    10    41 1   
    30    10    42 1   
    31    11    12 ar  
    32    11    16 ar  
    33    11    30 1   
    34    12    13 ar  
    35    12    53 1   
    36    13    14 ar  
    37    13    43 1   
    38    14    15 ar  
    39    14    17 ar  
    40    15    16 ar  
    41    15    20 ar  
    42    16    44 1   
    43    17    18 ar  
    44    17    21 1   
    45    18    19 ar  
    46    19    20 ar  
    47    19    45 1   
    48    21    23 1   
    49    23    46 1   
    50    23    47 1   
    51    24    48 1   
    52    24    49 1   
    53    24    53 1   
    54    25    26 1   
    55    25    50 1   
    56    26    27 1   
    57    28    51 1   
    58    29    52 1   
@<TRIPOS>SUBSTRUCTURE
     1 9G6         1 TEMP              0 ****  ****    0 ROOT
