@<TRIPOS>MOLECULE
9G7
   84    87     1     0     0
SMALL
bcc


@<TRIPOS>ATOM
      1 C10          1.7820    -1.6470     3.2520 ca         1 9G7       0.135900
      2 C13          2.3160     0.5690     3.8570 ca         1 9G7      -0.106000
      3 C15          1.3670     0.0920     1.6620 ca         1 9G7      -0.029300
      4 C20          4.1630     2.1320    -1.1440 c3         1 9G7       0.120000
      5 C22          6.4140     2.1980    -2.0870 c          1 9G7       0.751100
      6 C26         -0.5360     1.3540     0.5330 c6         1 9G7      -0.106700
      7 C28         -0.5990     2.5950     1.4250 c6         1 9G7      -0.071400
      8 C01          2.5260    -3.7350    -2.8130 c3         1 9G7      -0.086100
      9 C03          1.4610    -4.0640    -0.5610 ca         1 9G7      -0.081300
     10 C04          0.1830    -4.6010    -0.4310 ca         1 9G7      -0.120000
     11 C05         -0.7230    -4.0560     0.4690 ca         1 9G7      -0.123000
     12 C06         -0.3650    -2.9620     1.2440 ca         1 9G7      -0.109000
     13 C07          0.9000    -2.4010     1.1130 cp         1 9G7      -0.019000
     14 C08          1.8040    -2.9700     0.2260 ca         1 9G7      -0.093000
     15 C09          1.3310    -1.2740     1.9880 cp         1 9G7      -0.045000
     16 F11          1.7520    -2.9540     3.5680 f          1 9G7      -0.137900
     17 C12          2.2680    -0.7720     4.1970 ca         1 9G7      -0.170000
     18 C14          1.8760     0.9830     2.6120 ca         1 9G7      -0.155000
     19 C16          0.8580     0.6820     0.3480 c3         1 9G7       0.219100
     20 O17          0.7150    -0.3740    -0.5710 oh         1 9G7      -0.577800
     21 C18          1.8640     1.6950    -0.2340 c3         1 9G7      -0.100400
     22 C19          3.2300     1.0940    -0.5400 c3         1 9G7      -0.095400
     23 N21          5.4560     1.5410    -1.4160 ns         1 9G7      -0.571900
     24 O23          6.2910     3.3080    -2.5680 o          1 9G7      -0.594000
     25 O24          7.5340     1.4690    -2.1710 os         1 9G7      -0.437900
     26 C25          8.6330     2.0580    -2.8540 c3         1 9G7       0.148700
     27 C29         -2.0160     3.1600     1.4570 c6         1 9G7      -0.098400
     28 C30         -3.0140     2.0930     1.8850 c6         1 9G7       0.101000
     29 N31         -2.9070     0.9340     1.0180 n          1 9G7      -0.482800
     30 C32         -1.5820     0.3420     1.0090 c6         1 9G7       0.094000
     31 C33         -3.8780     0.4690     0.1990 c          1 9G7       0.673100
     32 O34         -3.6990    -0.5070    -0.5210 o          1 9G7      -0.605100
     33 C35         -5.2180     1.1840     0.2330 c3         1 9G7      -0.149400
     34 C36         -6.2190     0.6960    -0.8060 c6         1 9G7      -0.050700
     35 C37         -7.6250     1.1920    -0.4650 c6         1 9G7      -0.073900
     36 C38         -8.6280     0.7750    -1.5290 c6         1 9G7       0.160300
     37 N39         -8.2140     1.2740    -2.8280 n7         1 9G7      -0.808200
     38 C40         -6.9260     0.7330    -3.2220 c6         1 9G7       0.160300
     39 C41         -5.8550     1.1440    -2.2220 c6         1 9G7      -0.073900
     40 H1           2.7000     1.2930     4.5610 ha         1 9G7       0.136000
     41 H2           3.7350     2.5170    -2.0720 h1         1 9G7       0.048700
     42 H3           4.2620     2.9820    -0.4610 h1         1 9G7       0.048700
     43 H4          -0.8320     1.6750    -0.4770 hc         1 9G7       0.051700
     44 H5          -0.3090     2.3370     2.4480 hc         1 9G7       0.045200
     45 H6           0.0910     3.3680     1.0830 hc         1 9G7       0.045200
     46 H7           2.8400    -2.7210    -2.5630 hc         1 9G7       0.033367
     47 H8           3.2420    -4.1410    -3.5280 hc         1 9G7       0.033367
     48 H9           1.5580    -3.6680    -3.3110 hc         1 9G7       0.033367
     49 H10          2.1540    -5.6240    -1.8470 hc         1 9G7       0.043200
     50 H11          3.4330    -4.6830    -1.1080 hc         1 9G7       0.043200
     51 H12         -0.1040    -5.4570    -1.0310 ha         1 9G7       0.127000
     52 H13         -1.7110    -4.4860     0.5690 ha         1 9G7       0.132000
     53 H14         -1.0730    -2.5410     1.9470 ha         1 9G7       0.130000
     54 H15          2.7960    -2.5400     0.1350 ha         1 9G7       0.126000
     55 H16          2.6080    -1.1310     5.1600 ha         1 9G7       0.153000
     56 H17          1.9410     2.0360     2.3810 ha         1 9G7       0.133000
     57 H18          0.4070    -0.0030    -1.4060 ho         1 9G7       0.409000
     58 H19          1.4280     2.1000    -1.1550 hc         1 9G7       0.047200
     59 H20          1.9870     2.5520     0.4290 hc         1 9G7       0.047200
     60 H21          3.1260     0.2550    -1.2300 hc         1 9G7       0.057200
     61 H22          3.6740     0.6990     0.3790 hc         1 9G7       0.057200
     62 H23          5.6780     0.6520    -0.9970 hn         1 9G7       0.328500
     63 H24          8.3980     2.2670    -3.8980 h1         1 9G7       0.047033
     64 H25          8.9640     2.9770    -2.3710 h1         1 9G7       0.047033
     65 H26          9.4360     1.3270    -2.8120 h1         1 9G7       0.047033
     66 H27         -2.0670     4.0010     2.1520 hc         1 9G7       0.049200
     67 H28         -2.2960     3.5400     0.4700 hc         1 9G7       0.049200
     68 H29         -2.7920     1.7770     2.9110 h1         1 9G7       0.049200
     69 H30         -4.0250     2.4880     1.8920 h1         1 9G7       0.049200
     70 H31         -1.5920    -0.5370     0.3740 h1         1 9G7       0.073700
     71 H32         -1.3410     0.0140     2.0280 h1         1 9G7       0.073700
     72 H33         -5.6390     1.0590     1.2370 hc         1 9G7       0.056700
     73 H34         -5.0740     2.2620     0.1080 hc         1 9G7       0.056700
     74 H35         -6.2430    -0.4000    -0.7910 hc         1 9G7       0.066700
     75 H36         -7.9380     0.7970     0.5050 hc         1 9G7       0.046700
     76 H37         -7.6240     2.2840    -0.3790 hc         1 9G7       0.046700
     77 H38         -8.7230    -0.3250    -1.5110 h1         1 9G7       0.029700
     78 H39         -9.6140     1.1790    -1.2920 h1         1 9G7       0.029700
     79 H40         -8.9090     1.0240    -3.5200 hn         1 9G7       0.352800
     80 H42         -6.9360    -0.3680    -3.2950 h1         1 9G7       0.029700
     81 H43         -6.6730     1.1100    -4.2150 h1         1 9G7       0.029700
     82 H44         -5.7480     2.2340    -2.2410 hc         1 9G7       0.046700
     83 H45         -4.8960     0.7210    -2.5240 hc         1 9G7       0.046700
     84 C02          2.4420    -4.6090    -1.5630 c3         1 9G7      -0.029100
@<TRIPOS>BOND
     1     1    15 ar  
     2     1    16 1   
     3     1    17 ar  
     4     2    17 ar  
     5     2    18 ar  
     6     2    40 1   
     7     3    15 ar  
     8     3    18 ar  
     9     3    19 1   
    10     4    22 1   
    11     4    23 1   
    12     4    41 1   
    13     4    42 1   
    14     5    23 1   
    15     5    24 2   
    16     5    25 1   
    17     6     7 1   
    18     6    19 1   
    19     6    30 1   
    20     6    43 1   
    21     7    27 1   
    22     7    44 1   
    23     7    45 1   
    24     8    46 1   
    25     8    47 1   
    26     8    48 1   
    27     8    84 1   
    28     9    10 ar  
    29     9    14 ar  
    30     9    84 1   
    31    10    11 ar  
    32    10    51 1   
    33    11    12 ar  
    34    11    52 1   
    35    12    13 ar  
    36    12    53 1   
    37    13    14 ar  
    38    13    15 1   
    39    14    54 1   
    40    17    55 1   
    41    18    56 1   
    42    19    20 1   
    43    19    21 1   
    44    20    57 1   
    45    21    22 1   
    46    21    58 1   
    47    21    59 1   
    48    22    60 1   
    49    22    61 1   
    50    23    62 1   
    51    25    26 1   
    52    26    63 1   
    53    26    64 1   
    54    26    65 1   
    55    27    28 1   
    56    27    66 1   
    57    27    67 1   
    58    28    29 1   
    59    28    68 1   
    60    28    69 1   
    61    29    30 1   
    62    29    31 1   
    63    30    70 1   
    64    30    71 1   
    65    31    32 2   
    66    31    33 1   
    67    33    34 1   
    68    33    72 1   
    69    33    73 1   
    70    34    35 1   
    71    34    39 1   
    72    34    74 1   
    73    35    36 1   
    74    35    75 1   
    75    35    76 1   
    76    36    37 1   
    77    36    77 1   
    78    36    78 1   
    79    37    38 1   
    80    37    79 1   
    81    38    39 1   
    82    38    80 1   
    83    38    81 1   
    84    39    82 1   
    85    39    83 1   
    86    49    84 1   
    87    50    84 1   
@<TRIPOS>SUBSTRUCTURE
     1 9G7         1 TEMP              0 ****  ****    0 ROOT
