@<TRIPOS>MOLECULE
9G7
   84    87     1     0     0
SMALL
No Charge or Current Charge


@<TRIPOS>ATOM
      1 C10          2.0110    -1.6410     3.3000 ca         1 9G7       0.171000
      2 C13          2.6340     0.6420     3.7760 ca         1 9G7      -0.088000
      3 C15          1.5350     0.1070     1.6240 ca         1 9G7      -0.029300
      4 C20          4.3210     2.2380    -1.2700 c3         1 9G7       0.120000
      5 C22          6.7250     2.4760    -1.9050 c          1 9G7       0.635100
      6 C26         -0.4750     1.2880     0.4510 c6         1 9G7      -0.106700
      7 C28         -0.5650     2.5490     1.3730 c6         1 9G7      -0.071400
      8 C01          2.0660    -3.8740    -2.8980 c3         1 9G7      -0.086100
      9 C03          1.1590    -4.1000    -0.5330 ca         1 9G7      -0.081300
     10 C04         -0.1410    -4.5680    -0.2620 ca         1 9G7      -0.102000
     11 C05         -0.9100    -3.9720     0.7530 ca         1 9G7      -0.105000
     12 C06         -0.3870    -2.8990     1.4930 ca         1 9G7      -0.091000
     13 C07          0.9040    -2.3900     1.2180 cp         1 9G7      -0.019000
     14 C08          1.6750    -3.0240     0.2150 ca         1 9G7      -0.075000
     15 C09          1.4810    -1.2780     2.0340 cp         1 9G7      -0.045000
     16 F11          1.9770    -2.9310     3.7060 f          1 9G7      -0.173000
     17 C12          2.5820    -0.6980     4.1600 ca         1 9G7      -0.152000
     18 C14          2.1190     1.0330     2.5330 ca         1 9G7      -0.137000
     19 C16          0.9730     0.6780     0.2700 c3         1 9G7       0.242300
     20 O17          0.8690    -0.3440    -0.7220 oh         1 9G7      -0.640000
     21 C18          1.9610     1.7070    -0.3830 c3         1 9G7      -0.100400
     22 C19          3.4020     1.1800    -0.6310 c3         1 9G7      -0.095400
     23 N21          5.6690     1.7200    -1.4890 ns         1 9G7      -0.504900
     24 O23          6.6810     3.6710    -2.1490 o          1 9G7      -0.545000
     25 O24          7.8250     1.6800    -2.0030 os         1 9G7      -0.461100
     26 C25          9.0570     2.2890    -2.4310 c3         1 9G7       0.171900
     27 C29         -2.0180     3.0780     1.4630 c6         1 9G7      -0.098400
     28 C30         -2.9810     1.9590     1.9130 c6         1 9G7       0.101000
     29 N31         -2.8780     0.7970     0.9920 n          1 9G7      -0.415800
     30 C32         -1.5050     0.2280     0.9430 c6         1 9G7       0.094000
     31 C33         -3.8970     0.3870     0.0950 c          1 9G7       0.606100
     32 O34         -3.6910    -0.5250    -0.6960 o          1 9G7      -0.605100
     33 C35         -5.2770     1.0810     0.1580 c3         1 9G7      -0.149400
     34 C36         -6.3630     0.6330    -0.8710 c6         1 9G7      -0.050700
     35 C37         -7.7710     1.1490    -0.4650 c6         1 9G7      -0.073900
     36 C38         -8.8430     0.7370    -1.5050 c6         1 9G7       0.160300
     37 N39         -8.4790     1.1980    -2.8660 n7         1 9G7      -0.863400
     38 C40         -7.1560     0.6950    -3.3060 c6         1 9G7       0.160300
     39 C41         -6.0380     1.1070    -2.3160 c6         1 9G7      -0.073900
     40 H1           3.0720     1.3830     4.4420 ha         1 9G7       0.118000
     41 H2           3.9040     2.5550    -2.2350 h1         1 9G7       0.048700
     42 H3           4.3810     3.1160    -0.6140 h1         1 9G7       0.048700
     43 H4          -0.7930     1.6040    -0.5530 hc         1 9G7       0.051700
     44 H5          -0.2220     2.3040     2.3870 hc         1 9G7       0.045200
     45 H6           0.0800     3.3560     1.0040 hc         1 9G7       0.045200
     46 H7           2.5130    -2.8970    -2.6790 hc         1 9G7       0.033367
     47 H8           2.6730    -4.3650    -3.6670 hc         1 9G7       0.033367
     48 H9           1.0600    -3.7110    -3.3050 hc         1 9G7       0.033367
     49 H10          1.6010    -5.7290    -1.8920 hc         1 9G7       0.043200
     50 H11          3.0210    -4.9140    -1.2620 hc         1 9G7       0.043200
     51 H12         -0.5550    -5.3960    -0.8320 ha         1 9G7       0.109000
     52 H13         -1.9080    -4.3450     0.9680 ha         1 9G7       0.114000
     53 H14         -0.9830    -2.4570     2.2870 ha         1 9G7       0.112000
     54 H15          2.6790    -2.6600     0.0110 ha         1 9G7       0.108000
     55 H16          2.9790    -1.0100     5.1230 ha         1 9G7       0.135000
     56 H17          2.1720     2.0890     2.2920 ha         1 9G7       0.115000
     57 H18          0.5440     0.0860    -1.5380 ho         1 9G7       0.448000
     58 H19          1.5450     2.0350    -1.3450 hc         1 9G7       0.047200
     59 H20          2.0310     2.6190     0.2170 hc         1 9G7       0.047200
     60 H21          3.3690     0.3000    -1.2860 hc         1 9G7       0.057200
     61 H22          3.8470     0.8550     0.3170 hc         1 9G7       0.057200
     62 H23          5.8580     0.7400    -1.3280 hn         1 9G7       0.328500
     63 H24          8.9510     2.7240    -3.4340 h1         1 9G7       0.047033
     64 H25          9.3620     3.0840    -1.7380 h1         1 9G7       0.047033
     65 H26          9.8600     1.5430    -2.4680 h1         1 9G7       0.047033
     66 H27         -2.0680     3.9190     2.1690 hc         1 9G7       0.049200
     67 H28         -2.3360     3.4670     0.4860 hc         1 9G7       0.049200
     68 H29         -2.7060     1.6300     2.9260 h1         1 9G7       0.049200
     69 H30         -4.0020     2.3540     1.9790 h1         1 9G7       0.049200
     70 H31         -1.4770    -0.6540     0.2880 h1         1 9G7       0.073700
     71 H32         -1.2270    -0.1110     1.9500 h1         1 9G7       0.073700
     72 H33         -5.6300     0.9650     1.1900 hc         1 9G7       0.056700
     73 H34         -5.1150     2.1640     0.1200 hc         1 9G7       0.056700
     74 H35         -6.3870    -0.4670    -0.8530 hc         1 9G7       0.066700
     75 H36         -8.0490     0.7530     0.5210 hc         1 9G7       0.046700
     76 H37         -7.7560     2.2430    -0.3700 hc         1 9G7       0.046700
     77 H38         -8.9480    -0.3590    -1.5070 h1         1 9G7       0.029700
     78 H39         -9.8160     1.1640    -1.2200 h1         1 9G7       0.029700
     79 H40         -9.1950     0.8730    -3.5280 hn         1 9G7       0.408000
     80 H42         -7.1900    -0.4020    -3.3830 h1         1 9G7       0.029700
     81 H43         -6.9270     1.0920    -4.3060 h1         1 9G7       0.029700
     82 H44         -5.9200     2.1990    -2.3350 hc         1 9G7       0.046700
     83 H45         -5.0830     0.6860    -2.6560 hc         1 9G7       0.046700
     84 C02          2.0010    -4.7420    -1.6280 c3         1 9G7      -0.029100
@<TRIPOS>BOND
     1     1    15 ar  
     2     1    16 1   
     3     1    17 ar  
     4     2    17 ar  
     5     2    18 ar  
     6     2    40 1   
     7     3    15 ar  
     8     3    18 ar  
     9     3    19 1   
    10     4    22 1   
    11     4    23 1   
    12     4    41 1   
    13     4    42 1   
    14     5    23 1   
    15     5    24 2   
    16     5    25 1   
    17     6     7 1   
    18     6    19 1   
    19     6    30 1   
    20     6    43 1   
    21     7    27 1   
    22     7    44 1   
    23     7    45 1   
    24     8    46 1   
    25     8    47 1   
    26     8    48 1   
    27     8    84 1   
    28     9    10 ar  
    29     9    14 ar  
    30     9    84 1   
    31    10    11 ar  
    32    10    51 1   
    33    11    12 ar  
    34    11    52 1   
    35    12    13 ar  
    36    12    53 1   
    37    13    14 ar  
    38    13    15 1   
    39    14    54 1   
    40    17    55 1   
    41    18    56 1   
    42    19    20 1   
    43    19    21 1   
    44    20    57 1   
    45    21    22 1   
    46    21    58 1   
    47    21    59 1   
    48    22    60 1   
    49    22    61 1   
    50    23    62 1   
    51    25    26 1   
    52    26    63 1   
    53    26    64 1   
    54    26    65 1   
    55    27    28 1   
    56    27    66 1   
    57    27    67 1   
    58    28    29 1   
    59    28    68 1   
    60    28    69 1   
    61    29    30 1   
    62    29    31 1   
    63    30    70 1   
    64    30    71 1   
    65    31    32 2   
    66    31    33 1   
    67    33    34 1   
    68    33    72 1   
    69    33    73 1   
    70    34    35 1   
    71    34    39 1   
    72    34    74 1   
    73    35    36 1   
    74    35    75 1   
    75    35    76 1   
    76    36    37 1   
    77    36    77 1   
    78    36    78 1   
    79    37    38 1   
    80    37    79 1   
    81    38    39 1   
    82    38    80 1   
    83    38    81 1   
    84    39    82 1   
    85    39    83 1   
    86    49    84 1   
    87    50    84 1   
@<TRIPOS>SUBSTRUCTURE
     1 9G7         1 TEMP              0 ****  ****    0 ROOT
