@<TRIPOS>MOLECULE
9G9
   46    49     1     0     0
SMALL
abcg2


@<TRIPOS>ATOM
      1 O1           5.8490     1.4840    -0.9950 os         1 9G9      -0.345600
      2 O2          -6.2400     1.6820    -0.3210 os         1 9G9      -0.345600
      3 O3           7.1170    -0.3050    -0.3530 os         1 9G9      -0.344100
      4 O4          -7.1190    -0.3780     0.1240 os         1 9G9      -0.344100
      5 C5           0.7670    -0.3670    -0.0410 c3         1 9G9      -0.054200
      6 C6          -0.7170    -0.2940     0.3800 c3         1 9G9      -0.054200
      7 C7           1.7190    -0.2390     1.1590 c3         1 9G9      -0.028600
      8 C8          -1.6070    -0.0600    -0.8560 c3         1 9G9      -0.028600
      9 C9           1.0630    -1.6550    -0.8080 c3         1 9G9      -0.090100
     10 C10         -1.0000     0.7810     1.4250 c3         1 9G9      -0.090100
     11 C11          3.1760    -0.3110     0.7910 ca         1 9G9      -0.073300
     12 C12         -3.0810    -0.1930    -0.5860 ca         1 9G9      -0.073300
     13 C13          3.7530     0.7320     0.0440 ca         1 9G9      -0.096000
     14 C14         -3.9100     0.9400    -0.5970 ca         1 9G9      -0.096000
     15 C15          3.9590    -1.3910     1.1760 ca         1 9G9      -0.111500
     16 C16         -3.6310    -1.4420    -0.3170 ca         1 9G9      -0.111500
     17 C17          5.0820     0.6270    -0.2740 ca         1 9G9       0.052600
     18 C18         -5.2460     0.7570    -0.3360 ca         1 9G9       0.052600
     19 C19          5.8520    -0.4570     0.1170 ca         1 9G9       0.047600
     20 C20         -5.7780    -0.4920    -0.0670 ca         1 9G9       0.047600
     21 C21          5.3180    -1.4870     0.8480 ca         1 9G9      -0.093500
     22 C22         -4.9930    -1.6180    -0.0490 ca         1 9G9      -0.093500
     23 C23          7.1850     1.0150    -0.8710 c5         1 9G9       0.372600
     24 C24         -7.3830     1.0150     0.1960 c5         1 9G9       0.372600
     25 H1           0.9550     0.4840    -0.7090 hc         1 9G9       0.048200
     26 H2          -0.9860    -1.2670     0.8130 hc         1 9G9       0.048200
     27 H3           1.5380     0.7100     1.6670 hc         1 9G9       0.049700
     28 H4           1.4920    -1.0280     1.8840 hc         1 9G9       0.049700
     29 H5          -1.3940     0.9380    -1.2510 hc         1 9G9       0.049700
     30 H6          -1.3360    -0.7630    -1.6450 hc         1 9G9       0.049700
     31 H7           0.3860    -1.8010    -1.6490 hc         1 9G9       0.035533
     32 H8           2.0770    -1.6550    -1.2090 hc         1 9G9       0.035533
     33 H9           0.9690    -2.5240    -0.1520 hc         1 9G9       0.035533
     34 H10         -0.6620     1.7630     1.0840 hc         1 9G9       0.035533
     35 H11         -2.0690     0.8540     1.6280 hc         1 9G9       0.035533
     36 H12         -0.5100     0.5690     2.3750 hc         1 9G9       0.035533
     37 H13          3.1690     1.5890    -0.2700 ha         1 9G9       0.132000
     38 H14         -3.5090     1.9230    -0.8110 ha         1 9G9       0.132000
     39 H15          3.5060    -2.1900     1.7500 ha         1 9G9       0.117500
     40 H16         -2.9860    -2.3130    -0.3140 ha         1 9G9       0.117500
     41 H17          5.9110    -2.3370     1.1590 ha         1 9G9       0.133000
     42 H18         -5.4040    -2.5970     0.1530 ha         1 9G9       0.133000
     43 H19          7.6640     1.0040    -1.8510 h2         1 9G9       0.063450
     44 H20         -7.5450     1.3100     1.2390 h2         1 9G9       0.063450
     45 H21          7.7420     1.6590    -0.1810 h2         1 9G9       0.063450
     46 H22         -8.2560     1.2580    -0.4090 h2         1 9G9       0.063450
@<TRIPOS>BOND
     1     1    17 1   
     2     1    23 1   
     3     2    18 1   
     4     2    24 1   
     5     3    19 1   
     6     3    23 1   
     7     4    20 1   
     8     4    24 1   
     9     5     6 1   
    10     5     7 1   
    11     5     9 1   
    12     5    25 1   
    13     6     8 1   
    14     6    10 1   
    15     6    26 1   
    16     7    11 1   
    17     7    27 1   
    18     7    28 1   
    19     8    12 1   
    20     8    29 1   
    21     8    30 1   
    22     9    31 1   
    23     9    32 1   
    24     9    33 1   
    25    10    34 1   
    26    10    35 1   
    27    10    36 1   
    28    11    13 ar  
    29    11    15 ar  
    30    12    14 ar  
    31    12    16 ar  
    32    13    17 ar  
    33    13    37 1   
    34    14    18 ar  
    35    14    38 1   
    36    15    21 ar  
    37    15    39 1   
    38    16    22 ar  
    39    16    40 1   
    40    17    19 ar  
    41    18    20 ar  
    42    19    21 ar  
    43    20    22 ar  
    44    21    41 1   
    45    22    42 1   
    46    23    43 1   
    47    23    45 1   
    48    24    44 1   
    49    24    46 1   
@<TRIPOS>SUBSTRUCTURE
     1 9G9         1 TEMP              0 ****  ****    0 ROOT
