@<TRIPOS>MOLECULE
9G9
   46    49     1     0     0
SMALL
No Charge or Current Charge


@<TRIPOS>ATOM
      1 O1           5.8900     1.7520    -0.6120 os         1 9G9      -0.345600
      2 O2          -6.2250     1.7590    -0.5510 os         1 9G9      -0.345600
      3 O3           7.2510    -0.1870    -0.2110 os         1 9G9      -0.344100
      4 O4          -7.1980    -0.2230     0.3980 os         1 9G9      -0.344100
      5 C5           0.8040    -0.3670    -0.0570 c3         1 9G9      -0.054200
      6 C6          -0.7190    -0.3660     0.3530 c3         1 9G9      -0.054200
      7 C7           1.7620    -0.4330     1.1750 c3         1 9G9      -0.028600
      8 C8          -1.6770    -0.3000    -0.8790 c3         1 9G9      -0.028600
      9 C9           1.1480    -1.4990    -1.0670 c3         1 9G9      -0.090100
     10 C10         -1.0630     0.7670     1.3630 c3         1 9G9      -0.090100
     11 C11          3.2460    -0.4130     0.8170 ca         1 9G9      -0.073300
     12 C12         -3.1610    -0.3200    -0.5210 ca         1 9G9      -0.073300
     13 C13          3.8210     0.7480     0.2490 ca         1 9G9      -0.096000
     14 C14         -3.9650     0.8220    -0.7460 ca         1 9G9      -0.096000
     15 C15          4.0560    -1.5530     1.0530 ca         1 9G9      -0.111500
     16 C16         -3.7420    -1.4880     0.0370 ca         1 9G9      -0.111500
     17 C17          5.1840     0.7260    -0.0710 ca         1 9G9       0.052600
     18 C18         -5.3190     0.7600    -0.3970 ca         1 9G9       0.052600
     19 C19          5.9590    -0.3760     0.1570 ca         1 9G9       0.047600
     20 C20         -5.8720    -0.3660     0.1420 ca         1 9G9       0.047600
     21 C21          5.4290    -1.5410     0.7230 ca         1 9G9      -0.093500
     22 C22         -5.1120    -1.5190     0.3740 ca         1 9G9      -0.093500
     23 C23          7.2300     1.1690    -0.7850 c5         1 9G9       0.372600
     24 C24         -7.4510     1.1770     0.0210 c5         1 9G9       0.372600
     25 H1           1.0020     0.5840    -0.5670 hc         1 9G9       0.048200
     26 H2          -0.9170    -1.3170     0.8630 hc         1 9G9       0.048200
     27 H3           1.5790     0.4200     1.8360 hc         1 9G9       0.049700
     28 H4           1.5240    -1.3290     1.7630 hc         1 9G9       0.049700
     29 H5          -1.4390     0.5960    -1.4670 hc         1 9G9       0.049700
     30 H6          -1.4940    -1.1540    -1.5390 hc         1 9G9       0.049700
     31 H7           0.6370    -1.3550    -2.0250 hc         1 9G9       0.035533
     32 H8           2.2190    -1.5230    -1.2990 hc         1 9G9       0.035533
     33 H9           0.8670    -2.4800    -0.6650 hc         1 9G9       0.035533
     34 H10         -0.7830     1.7480     0.9600 hc         1 9G9       0.035533
     35 H11         -2.1340     0.7890     1.5960 hc         1 9G9       0.035533
     36 H12         -0.5510     0.6230     2.3200 hc         1 9G9       0.035533
     37 H13          3.2260     1.6390     0.0630 ha         1 9G9       0.132000
     38 H14         -3.5480     1.7310    -1.1740 ha         1 9G9       0.132000
     39 H15          3.6220    -2.4500     1.4910 ha         1 9G9       0.117500
     40 H16         -3.1300    -2.3710     0.2070 ha         1 9G9       0.117500
     41 H17          6.0580    -2.4100     0.9010 ha         1 9G9       0.133000
     42 H18         -5.5670    -2.4100     0.8000 ha         1 9G9       0.133000
     43 H19          7.4590     1.1080    -1.8560 h2         1 9G9       0.063450
     44 H20         -7.7330     1.7440     0.9160 h2         1 9G9       0.063450
     45 H21          7.9730     1.7950    -0.2770 h2         1 9G9       0.063450
     46 H22         -8.2580     1.2190    -0.7200 h2         1 9G9       0.063450
@<TRIPOS>BOND
     1     1    17 1   
     2     1    23 1   
     3     2    18 1   
     4     2    24 1   
     5     3    19 1   
     6     3    23 1   
     7     4    20 1   
     8     4    24 1   
     9     5     6 1   
    10     5     7 1   
    11     5     9 1   
    12     5    25 1   
    13     6     8 1   
    14     6    10 1   
    15     6    26 1   
    16     7    11 1   
    17     7    27 1   
    18     7    28 1   
    19     8    12 1   
    20     8    29 1   
    21     8    30 1   
    22     9    31 1   
    23     9    32 1   
    24     9    33 1   
    25    10    34 1   
    26    10    35 1   
    27    10    36 1   
    28    11    13 ar  
    29    11    15 ar  
    30    12    14 ar  
    31    12    16 ar  
    32    13    17 ar  
    33    13    37 1   
    34    14    18 ar  
    35    14    38 1   
    36    15    21 ar  
    37    15    39 1   
    38    16    22 ar  
    39    16    40 1   
    40    17    19 ar  
    41    18    20 ar  
    42    19    21 ar  
    43    20    22 ar  
    44    21    41 1   
    45    22    42 1   
    46    23    43 1   
    47    23    45 1   
    48    24    44 1   
    49    24    46 1   
@<TRIPOS>SUBSTRUCTURE
     1 9G9         1 TEMP              0 ****  ****    0 ROOT
