@<TRIPOS>MOLECULE
9GC
   55    58     1     0     0
SMALL
abcg2


@<TRIPOS>ATOM
      1 C1         -13.2050   -31.7880    -0.3400 c3         1 9GC       0.160900
      2 C2         -11.5760   -33.4500     0.0560 ca         1 9GC       0.557300
      3 C3         -10.4380   -33.8760     0.8120 ca         1 9GC      -0.044000
      4 C4          -9.8780   -33.0850     1.8300 ca         1 9GC      -0.146000
      5 C6          -8.2100   -34.7890     2.1920 ca         1 9GC      -0.116000
      6 C7          -8.7500   -35.5600     1.2020 ca         1 9GC      -0.085000
      7 C8          -9.8930   -35.1340     0.4890 ca         1 9GC      -0.079000
      8 C9         -10.5140   -35.9030    -0.5410 ca         1 9GC       0.089100
      9 C12        -12.3180   -37.4640    -4.2610 c3         1 9GC      -0.050000
     10 C13        -12.7230   -38.9050    -3.8580 c          1 9GC       0.714000
     11 C14         -8.7120   -31.6590     3.9080 ca         1 9GC       0.098100
     12 C15         -8.2460   -30.4870     3.3310 ca         1 9GC      -0.113000
     13 C16         -8.7930   -29.2760     3.7230 ca         1 9GC      -0.097500
     14 C17         -9.8050   -29.2190     4.6810 ca         1 9GC      -0.081300
     15 C18        -10.2420   -30.4080     5.2540 ca         1 9GC      -0.097500
     16 C20        -11.1300   -27.2480     3.8940 ca         1 9GC      -0.080300
     17 C21        -12.2210   -27.8760     3.2930 ca         1 9GC      -0.104000
     18 C22        -12.8680   -27.2950     2.2140 ca         1 9GC      -0.109000
     19 C24        -11.3490   -25.4390     2.3040 ca         1 9GC      -0.109000
     20 C25        -10.7030   -26.0260     3.3860 ca         1 9GC      -0.104000
     21 O6         -12.0640   -32.2470     0.3670 os         1 9GC      -0.474300
     22 C5          -8.7810   -33.5430     2.5170 ca         1 9GC       0.113100
     23 C10        -11.6050   -35.3810    -1.1860 ca         1 9GC       0.305500
     24 N1         -12.1160   -34.1640    -0.8710 nb         1 9GC      -0.695000
     25 O1         -13.6190   -36.1010    -2.1910 o          1 9GC      -0.596100
     26 N2         -11.6990   -36.6730    -3.2280 ns         1 9GC      -0.445900
     27 O2         -13.3060   -39.5350    -4.7630 o          1 9GC      -0.727000
     28 O3         -12.4320   -39.2970    -2.7170 o          1 9GC      -0.727000
     29 O4         -10.0420   -37.1150    -0.9020 oh         1 9GC      -0.505100
     30 O5          -8.1730   -32.8660     3.5210 os         1 9GC      -0.257200
     31 C19         -9.7040   -31.6300     4.8720 ca         1 9GC      -0.113000
     32 C27        -10.4220   -27.8960     5.0580 c3         1 9GC       0.016200
     33 C23        -12.4330   -26.0720     1.7130 ca         1 9GC      -0.110000
     34 H1         -13.4290   -30.8030     0.0630 h1         1 9GC       0.044700
     35 H2         -13.0120   -31.7050    -1.4100 h1         1 9GC       0.044700
     36 H3         -14.0640   -32.4440    -0.1900 h1         1 9GC       0.044700
     37 H4         -10.3200   -32.1260     2.0610 ha         1 9GC       0.141000
     38 H5          -7.3350   -35.1290     2.7310 ha         1 9GC       0.123000
     39 H6          -8.2680   -36.5030     0.9780 ha         1 9GC       0.115000
     40 H7         -11.6130   -37.5220    -5.0930 h1         1 9GC       0.032700
     41 H8         -13.1980   -36.9430    -4.6430 h1         1 9GC       0.032700
     42 H9          -7.4680   -30.5230     2.5790 ha         1 9GC       0.130000
     43 H10         -8.4340   -28.3610     3.2660 ha         1 9GC       0.114500
     44 H11        -11.0230   -30.3850     6.0040 ha         1 9GC       0.114500
     45 H12        -12.5640   -28.8320     3.6730 ha         1 9GC       0.112000
     46 H13        -13.7140   -27.7970     1.7600 ha         1 9GC       0.111500
     47 H14        -11.0020   -24.4880     1.9210 ha         1 9GC       0.111500
     48 H15         -9.8550   -25.5250     3.8400 ha         1 9GC       0.112000
     49 H16        -10.6950   -36.6710    -3.1810 hn         1 9GC       0.299500
     50 H18         -9.5730   -37.5470    -0.1810 ho         1 9GC       0.463000
     51 H19        -10.0600   -32.5510     5.3180 ha         1 9GC       0.130000
     52 H20         -9.6480   -27.2210     5.4310 hc         1 9GC       0.052700
     53 H21        -11.1250   -28.0470     5.8800 hc         1 9GC       0.052700
     54 H22        -12.9370   -25.6190     0.8690 ha         1 9GC       0.111000
     55 C11        -12.3960   -36.1080    -2.2370 c          1 9GC       0.521600
@<TRIPOS>BOND
     1     1    21 1   
     2     1    34 1   
     3     1    35 1   
     4     1    36 1   
     5     2     3 ar  
     6     2    21 1   
     7     2    24 ar  
     8     3     4 ar  
     9     3     7 ar  
    10     4    22 ar  
    11     4    37 1   
    12     5     6 ar  
    13     5    22 ar  
    14     5    38 1   
    15     6     7 ar  
    16     6    39 1   
    17     7     8 ar  
    18     8    23 ar  
    19     8    29 1   
    20     9    10 1   
    21     9    26 1   
    22     9    40 1   
    23     9    41 1   
    24    10    27 1   
    25    10    28 1   
    26    11    12 ar  
    27    11    30 1   
    28    11    31 ar  
    29    12    13 ar  
    30    12    42 1   
    31    13    14 ar  
    32    13    43 1   
    33    14    15 ar  
    34    14    32 1   
    35    15    31 ar  
    36    15    44 1   
    37    16    17 ar  
    38    16    20 ar  
    39    16    32 1   
    40    17    18 ar  
    41    17    45 1   
    42    18    33 ar  
    43    18    46 1   
    44    19    20 ar  
    45    19    33 ar  
    46    19    47 1   
    47    20    48 1   
    48    22    30 1   
    49    23    24 ar  
    50    23    55 1   
    51    25    55 2   
    52    26    49 1   
    53    26    55 1   
    54    29    50 1   
    55    31    51 1   
    56    32    52 1   
    57    32    53 1   
    58    33    54 1   
@<TRIPOS>SUBSTRUCTURE
     1 9GC         1 TEMP              0 ****  ****    0 ROOT
