@<TRIPOS>MOLECULE
9GC
   55    58     1     0     0
SMALL
No Charge or Current Charge


@<TRIPOS>ATOM
      1 C1         -12.5840   -31.3220    -1.5740 c3         1 9GC       0.160900
      2 C2         -11.2630   -33.2110    -0.7050 ca         1 9GC       0.557300
      3 C3         -10.2750   -33.6880     0.1900 ca         1 9GC      -0.044000
      4 C4          -9.6180   -32.8120     1.0860 ca         1 9GC      -0.146000
      5 C6          -8.3080   -34.6610     1.9580 ca         1 9GC      -0.116000
      6 C7          -8.9520   -35.5400     1.0720 ca         1 9GC      -0.085000
      7 C8          -9.9460   -35.0640     0.1800 ca         1 9GC      -0.079000
      8 C9         -10.6230   -35.9170    -0.7310 ca         1 9GC       0.089100
      9 C12        -12.8390   -38.4880    -3.6610 c3         1 9GC      -0.050000
     10 C13        -12.3180   -39.9400    -3.4970 c          1 9GC       0.714000
     11 C14         -8.6140   -31.4130     3.4850 ca         1 9GC       0.098100
     12 C15         -7.9130   -30.2090     3.6620 ca         1 9GC      -0.113000
     13 C16         -8.5250   -29.1260     4.3160 ca         1 9GC      -0.097500
     14 C17         -9.8400   -29.2440     4.8070 ca         1 9GC      -0.081300
     15 C18        -10.5360   -30.4570     4.6390 ca         1 9GC      -0.097500
     16 C20        -11.2660   -27.1900     4.5170 ca         1 9GC      -0.080300
     17 C21        -12.6190   -27.4530     4.2260 ca         1 9GC      -0.104000
     18 C22        -13.3170   -26.6490     3.3080 ca         1 9GC      -0.109000
     19 C24        -11.3150   -25.3100     2.9600 ca         1 9GC      -0.109000
     20 C25        -10.6180   -26.1150     3.8780 ca         1 9GC      -0.104000
     21 O6         -11.5820   -31.8670    -0.6920 os         1 9GC      -0.474300
     22 C5          -8.6460   -33.3020     1.9750 ca         1 9GC       0.113100
     23 C10        -11.6140   -35.3550    -1.6070 ca         1 9GC       0.305500
     24 N1         -11.9060   -34.0190    -1.5700 nb         1 9GC      -0.695000
     25 O1         -13.2610   -35.6950    -3.3820 o          1 9GC      -0.596100
     26 N2         -12.1640   -37.5550    -2.7310 ns         1 9GC      -0.445900
     27 O2         -12.8730   -40.6660    -2.6850 o          1 9GC      -0.727000
     28 O3         -11.3510   -40.2870    -4.1610 o          1 9GC      -0.727000
     29 O4         -10.3100   -37.2570    -0.7470 oh         1 9GC      -0.505100
     30 O5          -7.9900   -32.4620     2.8460 os         1 9GC      -0.257200
     31 C19         -9.9250   -31.5410     3.9840 ca         1 9GC      -0.113000
     32 C27        -10.5080   -28.0670     5.5060 c3         1 9GC       0.016200
     33 C23        -12.6650   -25.5760     2.6750 ca         1 9GC      -0.110000
     34 H1         -12.6890   -30.2420    -1.4090 h1         1 9GC       0.044700
     35 H2         -12.3090   -31.4790    -2.6250 h1         1 9GC       0.044700
     36 H3         -13.5610   -31.7890    -1.3940 h1         1 9GC       0.044700
     37 H4          -9.8570   -31.7520     1.0910 ha         1 9GC       0.141000
     38 H5          -7.5470   -35.0350     2.6380 ha         1 9GC       0.123000
     39 H6          -8.6610   -36.5870     1.0990 ha         1 9GC       0.115000
     40 H7         -12.6620   -38.1610    -4.6940 h1         1 9GC       0.032700
     41 H8         -13.9190   -38.4730    -3.4680 h1         1 9GC       0.032700
     42 H9          -6.8980   -30.1140     3.2850 ha         1 9GC       0.130000
     43 H10         -7.9770   -28.1940     4.4390 ha         1 9GC       0.114500
     44 H11        -11.5520   -30.5610     5.0150 ha         1 9GC       0.114500
     45 H12        -13.1300   -28.2830     4.7090 ha         1 9GC       0.112000
     46 H13        -14.3610   -26.8570     3.0870 ha         1 9GC       0.111500
     47 H14        -10.8090   -24.4820     2.4700 ha         1 9GC       0.111500
     48 H15         -9.5720   -25.9040     4.0900 ha         1 9GC       0.112000
     49 H16        -11.4570   -37.9240    -2.1010 hn         1 9GC       0.299500
     50 H18         -9.6210   -37.4360    -0.0750 ho         1 9GC       0.463000
     51 H19        -10.4680   -32.4760     3.8690 ha         1 9GC       0.130000
     52 H20         -9.7560   -27.4700     6.0370 hc         1 9GC       0.052700
     53 H21        -11.1900   -28.4310     6.2840 hc         1 9GC       0.052700
     54 H22        -13.2050   -24.9540     1.9650 ha         1 9GC       0.111000
     55 C11        -12.4150   -36.1950    -2.6410 c          1 9GC       0.521600
@<TRIPOS>BOND
     1     1    21 1   
     2     1    34 1   
     3     1    35 1   
     4     1    36 1   
     5     2     3 ar  
     6     2    21 1   
     7     2    24 ar  
     8     3     4 ar  
     9     3     7 ar  
    10     4    22 ar  
    11     4    37 1   
    12     5     6 ar  
    13     5    22 ar  
    14     5    38 1   
    15     6     7 ar  
    16     6    39 1   
    17     7     8 ar  
    18     8    23 ar  
    19     8    29 1   
    20     9    10 1   
    21     9    26 1   
    22     9    40 1   
    23     9    41 1   
    24    10    27 1   
    25    10    28 1   
    26    11    12 ar  
    27    11    30 1   
    28    11    31 ar  
    29    12    13 ar  
    30    12    42 1   
    31    13    14 ar  
    32    13    43 1   
    33    14    15 ar  
    34    14    32 1   
    35    15    31 ar  
    36    15    44 1   
    37    16    17 ar  
    38    16    20 ar  
    39    16    32 1   
    40    17    18 ar  
    41    17    45 1   
    42    18    33 ar  
    43    18    46 1   
    44    19    20 ar  
    45    19    33 ar  
    46    19    47 1   
    47    20    48 1   
    48    22    30 1   
    49    23    24 ar  
    50    23    55 1   
    51    25    55 2   
    52    26    49 1   
    53    26    55 1   
    54    29    50 1   
    55    31    51 1   
    56    32    52 1   
    57    32    53 1   
    58    33    54 1   
@<TRIPOS>SUBSTRUCTURE
     1 9GC         1 TEMP              0 ****  ****    0 ROOT
