@<TRIPOS>MOLECULE
9GD
   83    87     1     0     0
SMALL
abcg2


@<TRIPOS>ATOM
      1 CAK        -20.5590    34.0000     3.4500 c6         1 9GD      -0.108400
      2 CAL        -21.0210    35.4560     3.5120 c6         1 9GD       0.149800
      3 NAM        -21.1090    35.9940     4.8740 n7         1 9GD      -0.851400
      4 CAN        -21.9360    35.1430     5.7360 c6         1 9GD       0.149800
      5 CAO        -21.5070    33.6740     5.7470 c6         1 9GD      -0.108400
      6 CAJ        -21.4380    33.1050     4.3260 c6         1 9GD      -0.066700
      7 CAI        -20.9480    31.6610     4.3840 c3         1 9GD       0.211800
      8 NAH        -20.8830    30.9680     3.0750 n3         1 9GD      -0.723500
      9 CAA        -19.5850    30.3240     2.7500 c3         1 9GD       0.258100
     10 CAB        -18.5230    31.3550     2.4750 ca         1 9GD      -0.086300
     11 CAC        -17.5500    31.6260     3.4190 ca         1 9GD      -0.220000
     12 CAD        -16.5680    32.6140     3.2100 ca         1 9GD       0.323000
     13 NBP        -15.6680    32.8920     4.2160 nv         1 9GD      -1.106000
     14 CAE        -16.5740    33.3340     1.9910 ca         1 9GD      -0.184600
     15 CBQ        -15.5350    34.3910     1.6430 c          1 9GD       0.713600
     16 OBS        -15.7370    35.0820     0.6140 o          1 9GD      -0.723500
     17 OBR        -14.5240    34.5010     2.4000 o          1 9GD      -0.723500
     18 CAF        -17.5690    33.0360     1.0540 ca         1 9GD      -0.057000
     19 CAG        -18.5320    32.0670     1.2730 ca         1 9GD      -0.167000
     20 SAP        -22.2350    30.1770     2.5960 sy         1 9GD       1.175600
     21 OAQ        -22.0240    29.7160     1.2450 o          1 9GD      -0.546000
     22 OAR        -23.3630    31.0270     2.8850 o          1 9GD      -0.546000
     23 CAS        -22.3650    28.7480     3.6470 ca         1 9GD      -0.253500
     24 CAX        -21.6280    27.6050     3.3430 ca         1 9GD      -0.034500
     25 CAW        -21.6640    26.5230     4.2090 ca         1 9GD      -0.044500
     26 CAT        -23.1440    28.8170     4.7990 ca         1 9GD      -0.034500
     27 CAU        -23.1850    27.7300     5.6610 ca         1 9GD      -0.044500
     28 CAV        -22.4390    26.5960     5.3630 ca         1 9GD      -0.250500
     29 SAY        -22.4540    25.2210     6.4960 sy         1 9GD       1.202600
     30 OAZ        -23.6110    25.3880     7.3400 o          1 9GD      -0.544500
     31 OBA        -21.1550    25.1520     7.1290 o          1 9GD      -0.544500
     32 NBB        -22.6190    23.8710     5.5940 n3         1 9GD      -0.781500
     33 CBE        -23.7330    23.7220     4.6310 c5         1 9GD       0.222500
     34 CBF        -25.0450    24.4470     4.9400 c5         1 9GD      -0.092400
     35 CBG        -26.0210    23.8240     3.9300 c5         1 9GD      -0.078400
     36 CBH        -25.5010    22.3810     3.6810 c5         1 9GD      -0.078400
     37 CBI        -24.1950    22.2660     4.4880 c5         1 9GD      -0.092400
     38 CBC        -21.4220    23.0740     5.2860 c3         1 9GD       0.266100
     39 CBD        -21.3740    21.7490     6.0110 ca         1 9GD      -0.086300
     40 CBJ        -20.7450    20.6610     5.4100 ca         1 9GD      -0.088000
     41 CBK        -20.6350    19.4420     6.0670 ca         1 9GD      -0.101000
     42 CBL        -21.1700    19.3170     7.3420 ca         1 9GD       0.124000
     43 CL         -21.0470    17.7820     8.1810 cl         1 9GD      -0.219000
     44 CBM        -21.8060    20.3830     7.9630 ca         1 9GD      -0.101000
     45 CBN        -21.9030    21.5960     7.2900 ca         1 9GD      -0.088000
     46 H1         -20.5720    33.6480     2.4170 hc         1 9GD       0.052700
     47 H2         -19.5200    33.9360     3.7910 hc         1 9GD       0.052700
     48 H3         -20.3480    36.0910     2.9330 h1         1 9GD       0.048950
     49 H4         -22.0150    35.5410     3.0580 h1         1 9GD       0.048950
     50 H5         -20.1720    36.0360     5.2650 hn         1 9GD       0.405000
     51 H7         -21.9150    35.5510     6.7490 h1         1 9GD       0.048950
     52 H8         -22.9690    35.2150     5.3800 h1         1 9GD       0.048950
     53 H9         -22.2020    33.0880     6.3570 hc         1 9GD       0.052700
     54 H10        -20.5200    33.5950     6.2190 hc         1 9GD       0.052700
     55 H11        -22.4500    33.1050     3.9120 hc         1 9GD       0.068700
     56 H12        -21.5700    31.0900     5.0790 h1         1 9GD       0.046200
     57 H13        -19.9370    31.6430     4.7870 h1         1 9GD       0.046200
     58 H14        -19.7360    29.7100     1.8670 h1         1 9GD       0.046700
     59 H15        -19.2840    29.6740     3.5760 h1         1 9GD       0.046700
     60 H16        -17.5400    31.0780     4.3550 ha         1 9GD       0.082000
     61 H17        -15.4960    32.1540     4.8810 hn         1 9GD       0.474000
     62 H18        -14.8670    33.4240     3.8890 hn         1 9GD       0.474000
     63 H20        -17.5610    33.5950     0.1290 ha         1 9GD       0.133000
     64 H21        -19.2940    31.8680     0.5300 ha         1 9GD       0.101000
     65 H22        -21.0420    27.5530     2.4370 ha         1 9GD       0.141000
     66 H23        -21.0980    25.6320     3.9760 ha         1 9GD       0.127000
     67 H24        -23.7230    29.7030     5.0120 ha         1 9GD       0.141000
     68 H25        -23.7960    27.7600     6.5510 ha         1 9GD       0.127000
     69 H26        -23.3660    24.0720     3.6570 h1         1 9GD       0.042700
     70 H27        -24.9790    25.5290     4.8430 hc         1 9GD       0.061700
     71 H28        -25.3510    24.2190     5.9610 hc         1 9GD       0.061700
     72 H29        -26.0140    24.3940     3.0000 hc         1 9GD       0.046450
     73 H30        -27.0430    23.8380     4.3090 hc         1 9GD       0.046450
     74 H31        -26.2220    21.6250     3.9910 hc         1 9GD       0.046450
     75 H32        -25.3090    22.2240     2.6190 hc         1 9GD       0.046450
     76 H33        -24.3880    21.8670     5.4860 hc         1 9GD       0.061700
     77 H34        -23.4570    21.6250     4.0090 hc         1 9GD       0.061700
     78 H35        -21.3890    22.9120     4.2070 h1         1 9GD       0.068700
     79 H36        -20.5370    23.6510     5.5480 h1         1 9GD       0.068700
     80 H37        -20.3380    20.7610     4.4100 ha         1 9GD       0.121000
     81 H38        -20.1490    18.6000     5.5930 ha         1 9GD       0.129500
     82 H39        -22.2220    20.2690     8.9540 ha         1 9GD       0.129500
     83 H40        -22.4090    22.4230     7.7680 ha         1 9GD       0.121000
@<TRIPOS>BOND
     1     1     2 1   
     2     1     6 1   
     3     1    46 1   
     4     1    47 1   
     5     2     3 1   
     6     2    48 1   
     7     2    49 1   
     8     3     4 1   
     9     3    50 1   
    10     4     5 1   
    11     4    51 1   
    12     4    52 1   
    13     5     6 1   
    14     5    53 1   
    15     5    54 1   
    16     6     7 1   
    17     6    55 1   
    18     7     8 1   
    19     7    56 1   
    20     7    57 1   
    21     8     9 1   
    22     8    20 1   
    23     9    10 1   
    24     9    58 1   
    25     9    59 1   
    26    10    11 ar  
    27    10    19 ar  
    28    11    12 ar  
    29    11    60 1   
    30    12    13 1   
    31    12    14 ar  
    32    13    61 1   
    33    13    62 1   
    34    14    15 1   
    35    14    18 ar  
    36    15    16 1   
    37    15    17 1   
    38    18    19 ar  
    39    18    63 1   
    40    19    64 1   
    41    20    21 2   
    42    20    22 2   
    43    20    23 1   
    44    23    24 ar  
    45    23    26 ar  
    46    24    25 ar  
    47    24    65 1   
    48    25    28 ar  
    49    25    66 1   
    50    26    27 ar  
    51    26    67 1   
    52    27    28 ar  
    53    27    68 1   
    54    28    29 1   
    55    29    30 2   
    56    29    31 2   
    57    29    32 1   
    58    32    33 1   
    59    32    38 1   
    60    33    34 1   
    61    33    37 1   
    62    33    69 1   
    63    34    35 1   
    64    34    70 1   
    65    34    71 1   
    66    35    36 1   
    67    35    72 1   
    68    35    73 1   
    69    36    37 1   
    70    36    74 1   
    71    36    75 1   
    72    37    76 1   
    73    37    77 1   
    74    38    39 1   
    75    38    78 1   
    76    38    79 1   
    77    39    40 ar  
    78    39    45 ar  
    79    40    41 ar  
    80    40    80 1   
    81    41    42 ar  
    82    41    81 1   
    83    42    43 1   
    84    42    44 ar  
    85    44    45 ar  
    86    44    82 1   
    87    45    83 1   
@<TRIPOS>SUBSTRUCTURE
     1 9GD         1 TEMP              0 ****  ****    0 ROOT
