@<TRIPOS>MOLECULE
9GD
   83    87     1     0     0
SMALL
No Charge or Current Charge


@<TRIPOS>ATOM
      1 CAK        -21.9030    33.4570     2.2800 c6         1 9GD      -0.108400
      2 CAL        -22.9280    34.2780     1.4610 c6         1 9GD       0.149800
      3 NAM        -22.9340    35.6980     1.8870 n7         1 9GD      -0.851400
      4 CAN        -23.2390    35.8590     3.3290 c6         1 9GD       0.149800
      5 CAO        -22.2220    35.0820     4.2000 c6         1 9GD      -0.108400
      6 CAJ        -22.1740    33.5790     3.8070 c6         1 9GD      -0.066700
      7 CAI        -21.1170    32.8060     4.6580 c3         1 9GD       0.211800
      8 NAH        -20.9640    31.3510     4.3800 n3         1 9GD      -0.723500
      9 CAA        -19.6800    30.8020     4.8820 c3         1 9GD       0.258100
     10 CAB        -18.4440    31.5440     4.3680 ca         1 9GD      -0.086300
     11 CAC        -17.5770    32.2030     5.2590 ca         1 9GD      -0.220000
     12 CAD        -16.4470    32.8900     4.7880 ca         1 9GD       0.323000
     13 NBP        -15.6510    33.5150     5.7040 nv         1 9GD      -1.106000
     14 CAE        -16.1580    32.9270     3.4060 ca         1 9GD      -0.184600
     15 CBQ        -14.9550    33.6560     2.8560 c          1 9GD       0.713600
     16 OBS        -15.0600    34.1860     1.7590 o          1 9GD      -0.723500
     17 OBR        -13.9080    33.6510     3.4920 o          1 9GD      -0.723500
     18 CAF        -17.0340    32.2680     2.5140 ca         1 9GD      -0.057000
     19 CAG        -18.1620    31.5820     2.9910 ca         1 9GD      -0.167000
     20 SAP        -22.3330    30.4140     4.8050 sy         1 9GD       1.175600
     21 OAQ        -23.3040    30.5850     3.7170 o          1 9GD      -0.546000
     22 OAR        -22.6580    30.7340     6.2000 o          1 9GD      -0.546000
     23 CAS        -21.7410    28.7090     4.7140 ca         1 9GD      -0.253500
     24 CAX        -21.5620    28.0970     3.4560 ca         1 9GD      -0.034500
     25 CAW        -21.0930    26.7740     3.3730 ca         1 9GD      -0.044500
     26 CAT        -21.4410    27.9890     5.8900 ca         1 9GD      -0.034500
     27 CAU        -20.9730    26.6670     5.8070 ca         1 9GD      -0.044500
     28 CAV        -20.8050    26.0480     4.5490 ca         1 9GD      -0.250500
     29 SAY        -20.2010    24.3510     4.4460 sy         1 9GD       1.202600
     30 OAZ        -19.3770    24.1090     5.6370 o          1 9GD      -0.544500
     31 OBA        -19.6980    24.1040     3.0900 o          1 9GD      -0.544500
     32 NBB        -21.5810    23.3510     4.6350 n3         1 9GD      -0.781500
     33 CBE        -22.8910    23.7650     4.0080 c5         1 9GD       0.222500
     34 CBF        -23.5870    24.8430     4.9130 c5         1 9GD      -0.092400
     35 CBG        -25.1210    24.5580     4.8090 c5         1 9GD      -0.078400
     36 CBH        -25.2270    23.4290     3.7540 c5         1 9GD      -0.078400
     37 CBI        -23.9520    22.6250     4.0810 c5         1 9GD      -0.092400
     38 CBC        -21.1690    21.9280     4.4450 c3         1 9GD       0.266100
     39 CBD        -21.7780    20.9580     5.4570 ca         1 9GD      -0.086300
     40 CBJ        -22.3010    19.7190     5.0300 ca         1 9GD      -0.088000
     41 CBK        -22.8660    18.8300     5.9620 ca         1 9GD      -0.101000
     42 CBL        -22.9060    19.1710     7.3230 ca         1 9GD       0.124000
     43 Cl         -23.6130    18.0570     8.4870 cl         1 9GD      -0.219000
     44 CBM        -22.3810    20.3980     7.7570 ca         1 9GD      -0.101000
     45 CBN        -21.8170    21.2890     6.8270 ca         1 9GD      -0.088000
     46 H1         -21.9510    32.4050     1.9680 hc         1 9GD       0.052700
     47 H2         -20.8850    33.8010     2.0500 hc         1 9GD       0.052700
     48 H3         -22.6810    34.2130     0.3910 h1         1 9GD       0.048950
     49 H4         -23.9320    33.8480     1.5950 h1         1 9GD       0.048950
     50 H5         -21.9990    36.0870     1.7130 hn         1 9GD       0.405000
     51 H7         -23.2140    36.9260     3.5960 h1         1 9GD       0.048950
     52 H8         -24.2550    35.4900     3.5340 h1         1 9GD       0.048950
     53 H9         -22.4950    35.1860     5.2590 hc         1 9GD       0.052700
     54 H10        -21.2250    35.5330     4.0900 hc         1 9GD       0.052700
     55 H11        -23.1590    33.1500     4.0320 hc         1 9GD       0.068700
     56 H12        -21.3470    32.9620     5.7210 h1         1 9GD       0.046200
     57 H13        -20.1670    33.3250     4.4760 h1         1 9GD       0.046200
     58 H14        -19.5460    29.7600     4.5660 h1         1 9GD       0.046700
     59 H15        -19.6730    30.8070     5.9800 h1         1 9GD       0.046700
     60 H16        -17.7900    32.1840     6.3250 ha         1 9GD       0.082000
     61 H17        -15.7280    33.2400     6.6800 hn         1 9GD       0.474000
     62 H18        -14.7170    33.7720     5.3750 hn         1 9GD       0.474000
     63 H20        -16.8360    32.2840     1.4430 ha         1 9GD       0.133000
     64 H21        -18.8260    31.0830     2.2890 ha         1 9GD       0.101000
     65 H22        -21.7800    28.6450     2.5410 ha         1 9GD       0.141000
     66 H23        -20.9630    26.3180     2.3940 ha         1 9GD       0.127000
     67 H24        -21.5680    28.4470     6.8700 ha         1 9GD       0.141000
     68 H25        -20.7500    26.1220     6.7230 ha         1 9GD       0.127000
     69 H26        -22.7650    24.1130     2.9730 h1         1 9GD       0.042700
     70 H27        -23.3820    25.8590     4.5680 hc         1 9GD       0.061700
     71 H28        -23.2550    24.7790     5.9560 hc         1 9GD       0.061700
     72 H29        -25.6910    25.4470     4.5160 hc         1 9GD       0.046450
     73 H30        -25.5200    24.2290     5.7760 hc         1 9GD       0.046450
     74 H31        -26.1410    22.8350     3.8690 hc         1 9GD       0.046450
     75 H32        -25.2140    23.8220     2.7300 hc         1 9GD       0.046450
     76 H33        -24.0310    22.1720     5.0750 hc         1 9GD       0.061700
     77 H34        -23.7750    21.8290     3.3500 hc         1 9GD       0.061700
     78 H35        -21.3980    21.6000     3.4220 h1         1 9GD       0.068700
     79 H36        -20.0820    21.8040     4.5540 h1         1 9GD       0.068700
     80 H37        -22.2760    19.4470     3.9770 ha         1 9GD       0.121000
     81 H38        -23.2710    17.8780     5.6290 ha         1 9GD       0.129500
     82 H39        -22.4120    20.6600     8.8120 ha         1 9GD       0.129500
     83 H40        -21.4140    22.2400     7.1680 ha         1 9GD       0.121000
@<TRIPOS>BOND
     1     1     2 1   
     2     1     6 1   
     3     1    46 1   
     4     1    47 1   
     5     2     3 1   
     6     2    48 1   
     7     2    49 1   
     8     3     4 1   
     9     3    50 1   
    10     4     5 1   
    11     4    51 1   
    12     4    52 1   
    13     5     6 1   
    14     5    53 1   
    15     5    54 1   
    16     6     7 1   
    17     6    55 1   
    18     7     8 1   
    19     7    56 1   
    20     7    57 1   
    21     8     9 1   
    22     8    20 1   
    23     9    10 1   
    24     9    58 1   
    25     9    59 1   
    26    10    11 ar  
    27    10    19 ar  
    28    11    12 ar  
    29    11    60 1   
    30    12    13 1   
    31    12    14 ar  
    32    13    61 1   
    33    13    62 1   
    34    14    15 1   
    35    14    18 ar  
    36    15    16 1   
    37    15    17 1   
    38    18    19 ar  
    39    18    63 1   
    40    19    64 1   
    41    20    21 2   
    42    20    22 2   
    43    20    23 1   
    44    23    24 ar  
    45    23    26 ar  
    46    24    25 ar  
    47    24    65 1   
    48    25    28 ar  
    49    25    66 1   
    50    26    27 ar  
    51    26    67 1   
    52    27    28 ar  
    53    27    68 1   
    54    28    29 1   
    55    29    30 2   
    56    29    31 2   
    57    29    32 1   
    58    32    33 1   
    59    32    38 1   
    60    33    34 1   
    61    33    37 1   
    62    33    69 1   
    63    34    35 1   
    64    34    70 1   
    65    34    71 1   
    66    35    36 1   
    67    35    72 1   
    68    35    73 1   
    69    36    37 1   
    70    36    74 1   
    71    36    75 1   
    72    37    76 1   
    73    37    77 1   
    74    38    39 1   
    75    38    78 1   
    76    38    79 1   
    77    39    40 ar  
    78    39    45 ar  
    79    40    41 ar  
    80    40    80 1   
    81    41    42 ar  
    82    41    81 1   
    83    42    43 1   
    84    42    44 ar  
    85    44    45 ar  
    86    44    82 1   
    87    45    83 1   
@<TRIPOS>SUBSTRUCTURE
     1 9GD         1 TEMP              0 ****  ****    0 ROOT
