@<TRIPOS>MOLECULE
9GE
   44    43     1     0     0
SMALL
abcg2


@<TRIPOS>ATOM
      1 C            7.4270    -0.5700    -0.1280 c          1 9GE       0.699200
      2 O            7.6710    -0.4660     1.0920 o          1 9GE      -0.733000
      3 CA           6.1060    -0.0390    -0.6340 ce         1 9GE      -0.249200
      4 C04          5.1880     0.5400     0.1370 c2         1 9GE      -0.277200
      5 C05          3.8700     1.0600    -0.3370 c3         1 9GE      -0.030200
      6 C06          2.6860     0.3560     0.3280 c3         1 9GE      -0.073400
      7 O1           8.1730    -1.0760    -0.9930 o          1 9GE      -0.733000
      8 H1           5.9110    -0.1470    -1.6990 ha         1 9GE       0.136000
      9 H2           5.3910     0.6410     1.2000 ha         1 9GE       0.179000
     10 H3           3.8020     2.1320    -0.1200 hc         1 9GE       0.021700
     11 H4           3.7930     0.9570    -1.4230 hc         1 9GE       0.021700
     12 H5           2.7480    -0.7190     0.1300 hc         1 9GE       0.039200
     13 H6           2.7560     0.4700     1.4150 hc         1 9GE       0.039200
     14 C1           1.3450     0.8880    -0.1590 c3         1 9GE      -0.076400
     15 C2           0.1460     0.1850     0.4650 c3         1 9GE      -0.074400
     16 C3          -1.1840     0.7120    -0.0590 c3         1 9GE      -0.075400
     17 C4          -2.3990    -0.0220     0.4940 c3         1 9GE      -0.074400
     18 C5          -3.7150     0.5290    -0.0410 c3         1 9GE      -0.075400
     19 C6          -4.9360    -0.2800     0.3790 c3         1 9GE      -0.074400
     20 C7          -6.2420     0.3280    -0.1180 c3         1 9GE      -0.072400
     21 C8          -7.4930    -0.5100     0.1560 c3         1 9GE      -0.060700
     22 C9          -8.7530     0.3220    -0.0640 c3         1 9GE      -0.086600
     23 C10         -7.5330    -1.7630    -0.7150 c3         1 9GE      -0.086600
     24 H7           1.2830     1.9620     0.0460 hc         1 9GE       0.030200
     25 H9           1.2920     0.7860    -1.2480 hc         1 9GE       0.030200
     26 H10          0.2130    -0.8910     0.2670 hc         1 9GE       0.036700
     27 H11          0.1820     0.2940     1.5540 hc         1 9GE       0.036700
     28 H12         -1.2670     1.7800     0.1690 hc         1 9GE       0.034200
     29 H13         -1.1920     0.6380    -1.1520 hc         1 9GE       0.034200
     30 H14         -2.3210    -1.0860     0.2420 hc         1 9GE       0.036200
     31 H15         -2.3970     0.0300     1.5880 hc         1 9GE       0.036200
     32 H16         -3.8340     1.5690     0.2850 hc         1 9GE       0.035200
     33 H17         -3.6710     0.5610    -1.1350 hc         1 9GE       0.035200
     34 H18         -4.8230    -1.3040     0.0070 hc         1 9GE       0.037200
     35 H19         -4.9690    -0.3590     1.4710 hc         1 9GE       0.037200
     36 H20         -6.3640     1.3130     0.3450 hc         1 9GE       0.036200
     37 H21         -6.1740     0.5120    -1.1970 hc         1 9GE       0.036200
     38 H22         -7.4720    -0.8220     1.2070 hc         1 9GE       0.043700
     39 H23         -8.7970     0.6990    -1.0890 hc         1 9GE       0.030200
     40 H24         -9.6560    -0.2660     0.1100 hc         1 9GE       0.030200
     41 H25         -8.7830     1.1840     0.6060 hc         1 9GE       0.030200
     42 H26         -7.5730    -1.4930    -1.7730 hc         1 9GE       0.030200
     43 H27         -6.6590    -2.3990    -0.5710 hc         1 9GE       0.030200
     44 H28         -8.4140    -2.3690    -0.4970 hc         1 9GE       0.030200
@<TRIPOS>BOND
     1     1     2 1   
     2     1     3 1   
     3     1     7 1   
     4     3     4 2   
     5     3     8 1   
     6     4     5 1   
     7     4     9 1   
     8     5     6 1   
     9     5    10 1   
    10     5    11 1   
    11     6    12 1   
    12     6    13 1   
    13     6    14 1   
    14    14    15 1   
    15    14    24 1   
    16    14    25 1   
    17    15    16 1   
    18    15    26 1   
    19    15    27 1   
    20    16    17 1   
    21    16    28 1   
    22    16    29 1   
    23    17    18 1   
    24    17    30 1   
    25    17    31 1   
    26    18    19 1   
    27    18    32 1   
    28    18    33 1   
    29    19    20 1   
    30    19    34 1   
    31    19    35 1   
    32    20    21 1   
    33    20    36 1   
    34    20    37 1   
    35    21    22 1   
    36    21    23 1   
    37    21    38 1   
    38    22    39 1   
    39    22    40 1   
    40    22    41 1   
    41    23    42 1   
    42    23    43 1   
    43    23    44 1   
@<TRIPOS>SUBSTRUCTURE
     1 9GE         1 TEMP              0 ****  ****    0 ROOT
