@<TRIPOS>MOLECULE
9GE
   44    43     1     0     0
SMALL
No Charge or Current Charge


@<TRIPOS>ATOM
      1 C            7.2750    -0.8690    -0.0570 c          1 9GE       0.699200
      2 O            7.8030    -0.5390     0.9940 o          1 9GE      -0.733000
      3 CA           5.9720    -0.2390    -0.4460 ce         1 9GE      -0.249200
      4 C04          5.2960     0.6910     0.2750 c2         1 9GE      -0.277200
      5 C05          3.9790     1.3230    -0.1220 c3         1 9GE      -0.030200
      6 C06          2.7690     0.4400     0.2490 c3         1 9GE      -0.073400
      7 O1           7.7530    -1.6930    -0.8200 o          1 9GE      -0.733000
      8 H1           5.5680    -0.5860    -1.3950 ha         1 9GE       0.136000
      9 H2           5.6920     1.0450     1.2300 ha         1 9GE       0.179000
     10 H3           3.8750     2.2990     0.3690 hc         1 9GE       0.021700
     11 H4           3.9670     1.5160    -1.2020 hc         1 9GE       0.021700
     12 H5           2.8700    -0.5330    -0.2470 hc         1 9GE       0.039200
     13 H6           2.7820     0.2520     1.3290 hc         1 9GE       0.039200
     14 C1           1.4140     1.0710    -0.1420 c3         1 9GE      -0.076400
     15 C2           0.2050     0.1850     0.2300 c3         1 9GE      -0.074400
     16 C3          -1.1500     0.8160    -0.1610 c3         1 9GE      -0.075400
     17 C4          -2.3590    -0.0700     0.2110 c3         1 9GE      -0.074400
     18 C5          -3.7130     0.5610    -0.1800 c3         1 9GE      -0.075400
     19 C6          -4.9230    -0.3250     0.1930 c3         1 9GE      -0.074400
     20 C7          -6.2780     0.3080    -0.2050 c3         1 9GE      -0.072400
     21 C8          -7.5300    -0.4940     0.2450 c3         1 9GE      -0.060700
     22 C9          -8.8250     0.3000    -0.0400 c3         1 9GE      -0.086600
     23 C10         -7.6030    -1.9050    -0.3860 c3         1 9GE      -0.086600
     24 H7           1.3130     2.0440     0.3540 hc         1 9GE       0.030200
     25 H9           1.4030     1.2590    -1.2230 hc         1 9GE       0.030200
     26 H10          0.3050    -0.7890    -0.2660 hc         1 9GE       0.036700
     27 H11          0.2160    -0.0040     1.3110 hc         1 9GE       0.036700
     28 H12         -1.2500     1.7890     0.3350 hc         1 9GE       0.034200
     29 H13         -1.1600     1.0040    -1.2420 hc         1 9GE       0.034200
     30 H14         -2.2580    -1.0440    -0.2850 hc         1 9GE       0.036200
     31 H15         -2.3480    -0.2590     1.2920 hc         1 9GE       0.036200
     32 H16         -3.8130     1.5340     0.3160 hc         1 9GE       0.035200
     33 H17         -3.7240     0.7480    -1.2610 hc         1 9GE       0.035200
     34 H18         -4.8100    -1.2970    -0.3020 hc         1 9GE       0.037200
     35 H19         -4.9140    -0.5100     1.2740 hc         1 9GE       0.037200
     36 H20         -6.3300     1.3120     0.2350 hc         1 9GE       0.036200
     37 H21         -6.3060     0.4420    -1.2930 hc         1 9GE       0.036200
     38 H22         -7.4680    -0.6250     1.3330 hc         1 9GE       0.043700
     39 H23         -8.9530     0.4660    -1.1170 hc         1 9GE       0.030200
     40 H24         -9.7030    -0.2430     0.3290 hc         1 9GE       0.030200
     41 H25         -8.8000     1.2770     0.4570 hc         1 9GE       0.030200
     42 H26         -7.5940    -1.8440    -1.4810 hc         1 9GE       0.030200
     43 H27         -6.7600    -2.5280    -0.0670 hc         1 9GE       0.030200
     44 H28         -8.5230    -2.4180    -0.0810 hc         1 9GE       0.030200
@<TRIPOS>BOND
     1     1     2 1   
     2     1     3 1   
     3     1     7 1   
     4     3     4 2   
     5     3     8 1   
     6     4     5 1   
     7     4     9 1   
     8     5     6 1   
     9     5    10 1   
    10     5    11 1   
    11     6    12 1   
    12     6    13 1   
    13     6    14 1   
    14    14    15 1   
    15    14    24 1   
    16    14    25 1   
    17    15    16 1   
    18    15    26 1   
    19    15    27 1   
    20    16    17 1   
    21    16    28 1   
    22    16    29 1   
    23    17    18 1   
    24    17    30 1   
    25    17    31 1   
    26    18    19 1   
    27    18    32 1   
    28    18    33 1   
    29    19    20 1   
    30    19    34 1   
    31    19    35 1   
    32    20    21 1   
    33    20    36 1   
    34    20    37 1   
    35    21    22 1   
    36    21    23 1   
    37    21    38 1   
    38    22    39 1   
    39    22    40 1   
    40    22    41 1   
    41    23    42 1   
    42    23    43 1   
    43    23    44 1   
@<TRIPOS>SUBSTRUCTURE
     1 9GE         1 TEMP              0 ****  ****    0 ROOT
