@<TRIPOS>MOLECULE
9GF
   67    68     1     0     0
SMALL
abcg2


@<TRIPOS>ATOM
      1 CAA         22.1840    -9.9700    41.4020 c3         1 9GF      -0.090100
      2 CAB         22.9420    -9.0200    42.3250 c3         1 9GF      -0.077400
      3 CAC         22.5880    -7.5510    42.1060 c3         1 9GF      -0.075400
      4 CAD         23.4300    -6.6100    42.9670 c3         1 9GF      -0.074400
      5 CAE         23.3090    -5.1270    42.6060 c3         1 9GF      -0.067400
      6 CAF         23.8090    -4.7020    41.2180 c3         1 9GF      -0.064400
      7 CAG         25.3130    -4.9040    40.8810 c3         1 9GF       0.000300
      8 CAH         26.1780    -4.3190    42.0030 c3         1 9GF      -0.084100
      9 CAI         25.6100    -4.1060    39.5940 c3         1 9GF      -0.084100
     10 CAJ         25.6350    -6.3780    40.6080 ca         1 9GF      -0.022300
     11 CAK         26.6150    -7.0890    41.3060 ca         1 9GF      -0.144000
     12 CAL         26.8450    -8.4310    41.0350 ca         1 9GF      -0.070000
     13 CAM         26.1320    -9.1340    40.0640 ca         1 9GF      -0.164300
     14 CAN         26.3930   -10.6080    39.8370 c6         1 9GF      -0.002400
     15 CAO         26.0700   -11.4140    41.1070 c6         1 9GF      -0.070400
     16 CAP         26.2850   -12.9020    40.9020 c6         1 9GF       0.168300
     17 CAR         27.7090   -13.1820    40.4440 c6         1 9GF      -0.110400
     18 CAS         28.0350   -12.4050    39.1690 c6         1 9GF      -0.070400
     19 CAT         27.8250   -10.8950    39.3280 c6         1 9GF      -0.054700
     20 CAU         28.1050   -10.1390    38.0250 c3         1 9GF      -0.074400
     21 CAV         29.5440   -10.2510    37.5250 c3         1 9GF      -0.080400
     22 CAW         29.7890    -9.3820    36.3070 c3         1 9GF       0.161600
     23 CAY         25.1770    -8.4070    39.3440 ca         1 9GF       0.139100
     24 CBA         24.9410    -7.0630    39.6140 ca         1 9GF      -0.144000
     25 OAQ         25.9800   -13.5540    42.1440 oh         1 9GF      -0.664000
     26 OAX         31.1480    -9.5540    35.8840 oh         1 9GF      -0.671000
     27 OAZ         24.4130    -8.9550    38.3460 oh         1 9GF      -0.547100
     28 H1          22.4590   -11.0110    41.5870 hc         1 9GF       0.031033
     29 H2          21.1030    -9.8790    41.5410 hc         1 9GF       0.031033
     30 H3          22.4060    -9.7490    40.3550 hc         1 9GF       0.031033
     31 H4          24.0170    -9.1440    42.1620 hc         1 9GF       0.037700
     32 H5          22.7540    -9.2900    43.3700 hc         1 9GF       0.037700
     33 H6          21.5240    -7.3890    42.3150 hc         1 9GF       0.038200
     34 H7          22.7340    -7.3150    41.0500 hc         1 9GF       0.038200
     35 H8          24.4750    -6.9160    42.9040 hc         1 9GF       0.039200
     36 H9          23.1390    -6.7360    44.0150 hc         1 9GF       0.039200
     37 H10         23.8310    -4.5390    43.3660 hc         1 9GF       0.035200
     38 H11         22.2560    -4.8330    42.6760 hc         1 9GF       0.035200
     39 H12         23.6080    -3.6300    41.1180 hc         1 9GF       0.039200
     40 H13         23.2090    -5.1870    40.4450 hc         1 9GF       0.039200
     41 H14         26.0630    -4.8620    42.9420 hc         1 9GF       0.036367
     42 H15         27.2350    -4.3340    41.7320 hc         1 9GF       0.036367
     43 H16         25.8910    -3.2810    42.1790 hc         1 9GF       0.036367
     44 H17         25.4440    -3.0400    39.7640 hc         1 9GF       0.036367
     45 H18         26.6480    -4.2480    39.2860 hc         1 9GF       0.036367
     46 H19         24.9660    -4.4220    38.7720 hc         1 9GF       0.036367
     47 H20         27.1920    -6.6100    42.0830 ha         1 9GF       0.116000
     48 H21         27.6010    -8.9550    41.6070 ha         1 9GF       0.112000
     49 H22         25.7220   -10.9870    39.0560 hc         1 9GF       0.031700
     50 H23         25.0370   -11.2280    41.4050 hc         1 9GF       0.060200
     51 H24         26.7110   -11.0780    41.9270 hc         1 9GF       0.060200
     52 H25         25.5880   -13.2570    40.1310 h1         1 9GF       0.027700
     53 H26         28.3940   -12.8880    41.2460 hc         1 9GF       0.047700
     54 H27         27.8400   -14.2560    40.2790 hc         1 9GF       0.047700
     55 H28         29.0650   -12.6090    38.8750 hc         1 9GF       0.043700
     56 H29         27.4000   -12.7630    38.3500 hc         1 9GF       0.043700
     57 H30         28.5240   -10.5340    40.0920 hc         1 9GF       0.054700
     58 H31         27.4190   -10.5050    37.2530 hc         1 9GF       0.042700
     59 H32         27.8670    -9.0820    38.1740 hc         1 9GF       0.042700
     60 H33         30.2340    -9.9500    38.3200 hc         1 9GF       0.052700
     61 H34         29.7850   -11.2840    37.2650 hc         1 9GF       0.052700
     62 H35         29.1040    -9.6670    35.5000 h1         1 9GF       0.020200
     63 H36         29.6000    -8.3300    36.5510 h1         1 9GF       0.020200
     64 H37         24.1780    -6.5670    39.0290 ha         1 9GF       0.126000
     65 H38         26.1160   -14.5030    42.0250 ho         1 9GF       0.440000
     66 H39         31.2980    -8.9940    35.1130 ho         1 9GF       0.441000
     67 H40         24.6300    -9.8900    38.2370 ho         1 9GF       0.462000
@<TRIPOS>BOND
     1     1     2 1   
     2     1    28 1   
     3     1    29 1   
     4     1    30 1   
     5     2     3 1   
     6     2    31 1   
     7     2    32 1   
     8     3     4 1   
     9     3    33 1   
    10     3    34 1   
    11     4     5 1   
    12     4    35 1   
    13     4    36 1   
    14     5     6 1   
    15     5    37 1   
    16     5    38 1   
    17     6     7 1   
    18     6    39 1   
    19     6    40 1   
    20     7     8 1   
    21     7     9 1   
    22     7    10 1   
    23     8    41 1   
    24     8    42 1   
    25     8    43 1   
    26     9    44 1   
    27     9    45 1   
    28     9    46 1   
    29    10    11 ar  
    30    10    24 ar  
    31    11    12 ar  
    32    11    47 1   
    33    12    13 ar  
    34    12    48 1   
    35    13    14 1   
    36    13    23 ar  
    37    14    15 1   
    38    14    19 1   
    39    14    49 1   
    40    15    16 1   
    41    15    50 1   
    42    15    51 1   
    43    16    17 1   
    44    16    25 1   
    45    16    52 1   
    46    17    18 1   
    47    17    53 1   
    48    17    54 1   
    49    18    19 1   
    50    18    55 1   
    51    18    56 1   
    52    19    20 1   
    53    19    57 1   
    54    20    21 1   
    55    20    58 1   
    56    20    59 1   
    57    21    22 1   
    58    21    60 1   
    59    21    61 1   
    60    22    26 1   
    61    22    62 1   
    62    22    63 1   
    63    23    24 ar  
    64    23    27 1   
    65    24    64 1   
    66    25    65 1   
    67    26    66 1   
    68    27    67 1   
@<TRIPOS>SUBSTRUCTURE
     1 9GF         1 TEMP              0 ****  ****    0 ROOT
