@<TRIPOS>MOLECULE
9GF
   67    68     1     0     0
SMALL
No Charge or Current Charge


@<TRIPOS>ATOM
      1 CAA         22.0860   -10.0050    41.7050 c3         1 9GF      -0.090100
      2 CAB         22.9220    -9.0250    42.5490 c3         1 9GF      -0.077400
      3 CAC         22.6200    -7.5440    42.2350 c3         1 9GF      -0.075400
      4 CAD         23.5070    -6.5690    43.0430 c3         1 9GF      -0.074400
      5 CAE         23.3510    -5.0770    42.6570 c3         1 9GF      -0.067400
      6 CAF         23.7790    -4.6550    41.2180 c3         1 9GF      -0.064400
      7 CAG         25.2750    -4.8700    40.7820 c3         1 9GF       0.000300
      8 CAH         26.2250    -4.2310    41.8370 c3         1 9GF      -0.084100
      9 CAI         25.5070    -4.1030    39.4480 c3         1 9GF      -0.084100
     10 CAJ         25.5770    -6.3730    40.5170 ca         1 9GF      -0.022300
     11 CAK         26.5760    -7.0910    41.2170 ca         1 9GF      -0.144000
     12 CAL         26.8030    -8.4530    40.9620 ca         1 9GF      -0.070000
     13 CAM         26.0540    -9.1480    39.9900 ca         1 9GF      -0.164300
     14 CAN         26.3390   -10.6500    39.7470 c6         1 9GF      -0.002400
     15 CAO         25.9620   -11.4810    41.0060 c6         1 9GF      -0.070400
     16 CAP         26.1860   -12.9950    40.7820 c6         1 9GF       0.168300
     17 CAR         27.6530   -13.2660    40.3790 c6         1 9GF      -0.110400
     18 CAS         28.0490   -12.4560    39.1200 c6         1 9GF      -0.070400
     19 CAT         27.8210   -10.9260    39.3160 c6         1 9GF      -0.054700
     20 CAU         28.2080   -10.1090    38.0380 c3         1 9GF      -0.074400
     21 CAV         29.6880   -10.2130    37.5960 c3         1 9GF      -0.080400
     22 CAW         30.0260    -9.2800    36.4160 c3         1 9GF       0.161600
     23 CAY         25.0700    -8.4320    39.2710 ca         1 9GF       0.139100
     24 CBA         24.8450    -7.0730    39.5310 ca         1 9GF      -0.144000
     25 OAQ         25.8660   -13.7180    41.9730 oh         1 9GF      -0.664000
     26 OAX         31.4050    -9.4310    36.0590 oh         1 9GF      -0.671000
     27 OAZ         24.3120    -9.0360    38.3100 oh         1 9GF      -0.547100
     28 H1          22.3310   -11.0410    41.9690 hc         1 9GF       0.031033
     29 H2          21.0150    -9.8500    41.8780 hc         1 9GF       0.031033
     30 H3          22.2900    -9.8660    40.6370 hc         1 9GF       0.031033
     31 H4          23.9860    -9.2220    42.3700 hc         1 9GF       0.037700
     32 H5          22.7350    -9.2170    43.6130 hc         1 9GF       0.037700
     33 H6          21.5650    -7.3330    42.4510 hc         1 9GF       0.038200
     34 H7          22.7580    -7.3770    41.1620 hc         1 9GF       0.038200
     35 H8          24.5580    -6.8620    42.9620 hc         1 9GF       0.039200
     36 H9          23.2520    -6.6750    44.1040 hc         1 9GF       0.039200
     37 H10         23.9020    -4.4710    43.3860 hc         1 9GF       0.035200
     38 H11         22.2980    -4.8020    42.7900 hc         1 9GF       0.035200
     39 H12         23.5570    -3.5830    41.1350 hc         1 9GF       0.039200
     40 H13         23.1090    -5.1340    40.4960 hc         1 9GF       0.039200
     41 H14         26.1590    -4.7410    42.8050 hc         1 9GF       0.036367
     42 H15         27.2690    -4.2730    41.5030 hc         1 9GF       0.036367
     43 H16         25.9720    -3.1760    42.0020 hc         1 9GF       0.036367
     44 H17         25.3900    -3.0210    39.5900 hc         1 9GF       0.036367
     45 H18         26.5190    -4.2840    39.0670 hc         1 9GF       0.036367
     46 H19         24.7950    -4.4090    38.6730 hc         1 9GF       0.036367
     47 H20         27.1840    -6.6160    41.9800 ha         1 9GF       0.116000
     48 H21         27.5700    -8.9690    41.5330 ha         1 9GF       0.112000
     49 H22         25.7050   -11.0180    38.9300 hc         1 9GF       0.031700
     50 H23         24.9080   -11.3040    41.2590 hc         1 9GF       0.060200
     51 H24         26.5500   -11.1470    41.8710 hc         1 9GF       0.060200
     52 H25         25.5310   -13.3260    39.9610 h1         1 9GF       0.027700
     53 H26         28.3250   -13.0060    41.2090 hc         1 9GF       0.047700
     54 H27         27.7970   -14.3380    40.1840 hc         1 9GF       0.047700
     55 H28         29.1040   -12.6610    38.8950 hc         1 9GF       0.043700
     56 H29         27.4710   -12.8130    38.2560 hc         1 9GF       0.043700
     57 H30         28.4920   -10.5850    40.1160 hc         1 9GF       0.054700
     58 H31         27.5700   -10.4140    37.1990 hc         1 9GF       0.042700
     59 H32         27.9940    -9.0460    38.2060 hc         1 9GF       0.042700
     60 H33         30.3370    -9.9660    38.4460 hc         1 9GF       0.052700
     61 H34         29.9160   -11.2430    37.3010 hc         1 9GF       0.052700
     62 H35         29.3830    -9.5290    35.5610 h1         1 9GF       0.020200
     63 H36         29.8200    -8.2400    36.7030 h1         1 9GF       0.020200
     64 H37         24.0750    -6.5640    38.9600 ha         1 9GF       0.126000
     65 H38         25.9980   -14.6690    41.7670 ho         1 9GF       0.440000
     66 H39         31.5730    -8.8210    35.3070 ho         1 9GF       0.441000
     67 H40         24.5960    -9.9700    38.2470 ho         1 9GF       0.462000
@<TRIPOS>BOND
     1     1     2 1   
     2     1    28 1   
     3     1    29 1   
     4     1    30 1   
     5     2     3 1   
     6     2    31 1   
     7     2    32 1   
     8     3     4 1   
     9     3    33 1   
    10     3    34 1   
    11     4     5 1   
    12     4    35 1   
    13     4    36 1   
    14     5     6 1   
    15     5    37 1   
    16     5    38 1   
    17     6     7 1   
    18     6    39 1   
    19     6    40 1   
    20     7     8 1   
    21     7     9 1   
    22     7    10 1   
    23     8    41 1   
    24     8    42 1   
    25     8    43 1   
    26     9    44 1   
    27     9    45 1   
    28     9    46 1   
    29    10    11 ar  
    30    10    24 ar  
    31    11    12 ar  
    32    11    47 1   
    33    12    13 ar  
    34    12    48 1   
    35    13    14 1   
    36    13    23 ar  
    37    14    15 1   
    38    14    19 1   
    39    14    49 1   
    40    15    16 1   
    41    15    50 1   
    42    15    51 1   
    43    16    17 1   
    44    16    25 1   
    45    16    52 1   
    46    17    18 1   
    47    17    53 1   
    48    17    54 1   
    49    18    19 1   
    50    18    55 1   
    51    18    56 1   
    52    19    20 1   
    53    19    57 1   
    54    20    21 1   
    55    20    58 1   
    56    20    59 1   
    57    21    22 1   
    58    21    60 1   
    59    21    61 1   
    60    22    26 1   
    61    22    62 1   
    62    22    63 1   
    63    23    24 ar  
    64    23    27 1   
    65    24    64 1   
    66    25    65 1   
    67    26    66 1   
    68    27    67 1   
@<TRIPOS>SUBSTRUCTURE
     1 9GF         1 TEMP              0 ****  ****    0 ROOT
