@<TRIPOS>MOLECULE
9GH
   39    42     1     0     0
SMALL
abcg2


@<TRIPOS>ATOM
      1 N1           2.7230    -0.8690    -0.0080 n2         1 9GH      -0.164000
      2 N3           4.5180     0.6120     0.0500 nh         1 9GH      -0.285000
      3 C4          -0.5730     0.6410    -0.1220 ca         1 9GH       0.132000
      4 C5          -1.4120    -0.4620    -0.1590 ca         1 9GH      -0.335000
      5 C6          -0.8910    -1.7700    -0.1420 ca         1 9GH       0.232000
      6 C7           3.2130     0.3350     0.0090 c2         1 9GH      -0.013000
      7 C8           1.0180    -3.3950    -0.0530 c2         1 9GH       0.386000
      8 C10         -1.8280     3.9190     0.5640 c2         1 9GH      -0.219000
      9 C13          5.4790    -0.4820     0.0940 c3         1 9GH      -0.002000
     10 C15          5.1950     2.5200     1.4800 c3         1 9GH      -0.229500
     11 C1           0.5110    -1.9770    -0.0850 ca         1 9GH      -0.243000
     12 C2           1.3590    -0.8590    -0.0510 ca         1 9GH       0.108000
     13 C3           0.7890     0.4290    -0.0700 ca         1 9GH      -0.377000
     14 S            2.0270     1.6480    -0.0220 ss         1 9GH       0.235000
     15 I           -3.4880    -0.2150    -0.2320 i          1 9GH       0.096000
     16 O1          -1.7110    -2.7920    -0.1790 oh         1 9GH      -0.364000
     17 O2           2.2150    -3.6420     0.0160 o          1 9GH      -0.436000
     18 O3           0.1010    -4.2950    -0.0990 oh         1 9GH      -0.534000
     19 N2          -1.0680     1.9610    -0.1330 na         1 9GH      -0.075000
     20 C9          -1.3600     2.7010     0.9800 c2         1 9GH      -0.114500
     21 C11         -1.8190     3.9120    -0.8570 c2         1 9GH      -0.219000
     22 C12         -1.3470     2.6910    -1.2560 c2         1 9GH      -0.114500
     23 C14          5.0260     1.9720     0.0710 c3         1 9GH      -0.002000
     24 C16          5.8620    -0.9780    -1.2900 c3         1 9GH      -0.229500
     25 H1          -2.1420     4.7260     1.2060 ha         1 9GH       0.135000
     26 H2           6.3590    -0.1190     0.6290 h1         1 9GH       0.091000
     27 H3           5.0610    -1.2950     0.6850 h1         1 9GH       0.091000
     28 H4           4.2420     2.5610     2.0080 hc         1 9GH       0.079500
     29 H5           5.8810     1.9030     2.0600 hc         1 9GH       0.079500
     30 H6           5.6020     3.5300     1.4410 hc         1 9GH       0.079500
     31 H7          -1.0230    -3.6400    -0.1510 DU         1 9GH       0.324000
     32 H9          -1.2100     2.2980     1.9680 h4         1 9GH       0.166000
     33 H10         -2.1230     4.7140    -1.5110 ha         1 9GH       0.135000
     34 H11         -1.1840     2.2780    -2.2390 h4         1 9GH       0.166000
     35 H12          5.9850     1.9690    -0.4490 h1         1 9GH       0.091000
     36 H13          4.3750     2.6190    -0.5210 h1         1 9GH       0.091000
     37 H14          4.9940    -1.3820    -1.8090 hc         1 9GH       0.079500
     38 H15          6.2870    -0.1780    -1.8970 hc         1 9GH       0.079500
     39 H16          6.6080    -1.7690    -1.2110 hc         1 9GH       0.079500
@<TRIPOS>BOND
     1     1     6 1   
     2     1    12 1   
     3     2     6 1   
     4     2     9 1   
     5     2    23 1   
     6     3     4 1   
     7     3    13 1   
     8     3    19 1   
     9     4     5 1   
    10     4    15 1   
    11     5    11 1   
    12     5    16 1   
    13     6    14 1   
    14     7    11 1   
    15     7    17 1   
    16     7    18 1   
    17     8    20 1   
    18     8    21 1   
    19     8    25 1   
    20     9    24 1   
    21     9    26 1   
    22     9    27 1   
    23    10    23 1   
    24    10    28 1   
    25    10    29 1   
    26    10    30 1   
    27    11    12 1   
    28    12    13 1   
    29    13    14 1   
    30    16    31 1   
    31    18    31 1   
    32    19    20 1   
    33    19    22 1   
    34    20    32 1   
    35    21    22 1   
    36    21    33 1   
    37    22    34 1   
    38    23    35 1   
    39    23    36 1   
    40    24    37 1   
    41    24    38 1   
    42    24    39 1   
@<TRIPOS>SUBSTRUCTURE
     1 9GH         1 TEMP              0 ****  ****    0 ROOT
