@<TRIPOS>MOLECULE
9GI
   96    98     1     0     0
SMALL
No Charge or Current Charge


@<TRIPOS>ATOM
      1 N           -9.7720   -15.1740   -17.8480 ns         1 9GI      -0.480900
      2 C           -9.1010   -17.5470   -18.0810 c3         1 9GI       0.045700
      3 O           -9.1150   -16.3050   -15.9820 o          1 9GI      -0.612100
      4 C1          -9.3260   -16.3020   -17.1890 c          1 9GI       0.587100
      5 C10        -15.7010   -15.6760   -15.6740 c          1 9GI       0.564000
      6 C11         -9.1640   -12.7380   -17.7580 c3         1 9GI      -0.084400
      7 C12         -7.6630   -12.7470   -17.3160 c6         1 9GI      -0.060700
      8 C13        -10.3750   -18.4450   -18.1100 c3         1 9GI       0.168300
      9 C14        -11.6180   -17.7340   -18.7010 c3         1 9GI      -0.119100
     10 C16         -5.0810   -20.3590   -18.2000 c3         1 9GI       0.231900
     11 C18         -9.9700   -21.8550   -19.6520 c3         1 9GI      -0.107433
     12 C19        -11.9380   -21.0630   -18.2560 c3         1 9GI      -0.107433
     13 C2         -10.0700   -13.8760   -17.2040 c3         1 9GI       0.042700
     14 C20         -9.6020   -21.2600   -17.2150 c3         1 9GI      -0.107433
     15 C21         -6.9600   -11.4140   -17.6930 c6         1 9GI      -0.070900
     16 C22         -5.5270   -11.3190   -17.0930 c6         1 9GI      -0.072400
     17 C23         -4.8380   -12.7020   -16.9260 c6         1 9GI      -0.075400
     18 C24         -5.3260   -13.7060   -17.9940 c6         1 9GI      -0.072400
     19 C25         -6.8560   -13.9630   -17.8810 c6         1 9GI      -0.070900
     20 C26         -5.7190   -21.6590   -18.6850 ca         1 9GI      -0.129300
     21 C27         -5.8260   -21.9360   -20.0630 ca         1 9GI      -0.081000
     22 C28         -6.4160   -23.1340   -20.5010 ca         1 9GI      -0.117500
     23 C29         -6.9050   -24.0620   -19.5660 ca         1 9GI      -0.100000
     24 C3         -11.5760   -13.5360   -17.4020 c          1 9GI       0.587100
     25 C30         -6.8000   -23.7930   -18.1920 ca         1 9GI      -0.117500
     26 C31         -6.2050   -22.5970   -17.7520 ca         1 9GI      -0.081000
     27 C32        -13.3190   -10.1080   -17.2340 c3         1 9GI      -0.152400
     28 C33        -12.5990    -9.2280   -16.1870 c3         1 9GI      -0.083100
     29 C7         -14.8990   -14.6630   -16.4890 c5         1 9GI      -0.175700
     30 C8         -15.9360   -14.1610   -17.5320 c5         1 9GI      -0.090400
     31 C9         -16.7380   -15.4620   -17.8090 c5         1 9GI       0.099000
     32 N1         -12.0860   -12.6140   -16.4950 ns         1 9GI      -0.367500
     33 N2         -16.7420   -16.0600   -16.4750 ns         1 9GI      -0.513900
     34 N3          -7.9140   -18.2870   -17.5870 ns         1 9GI      -0.491900
     35 N4         -13.5350   -12.5060   -16.3770 n          1 9GI      -0.282400
     36 O1         -12.2520   -14.0250   -18.3000 o          1 9GI      -0.580100
     37 O2         -15.2950   -11.0120   -16.2180 o          1 9GI      -0.584100
     38 O4         -10.0900   -19.5910   -18.9530 os         1 9GI      -0.463000
     39 H1          -9.9510   -15.2620   -18.8420 hn         1 9GI       0.335500
     40 H2          -8.8960   -17.1910   -19.0990 h1         1 9GI       0.097700
     41 H3          -9.6020   -11.7860   -17.4350 hc         1 9GI       0.058200
     42 H4          -9.2320   -12.7300   -18.8540 hc         1 9GI       0.058200
     43 H5          -7.6710   -12.8170   -16.2180 hc         1 9GI       0.048700
     44 H6         -10.6080   -18.7450   -17.0810 h1         1 9GI       0.054700
     45 H7         -11.9400   -16.9110   -18.0530 hc         1 9GI       0.048367
     46 H8         -11.3970   -17.3270   -19.6950 hc         1 9GI       0.048367
     47 H9         -12.4670   -18.4170   -18.7960 hc         1 9GI       0.048367
     48 H10         -4.2990   -20.6060   -17.4700 h1         1 9GI       0.065700
     49 H11         -4.5940   -19.8300   -19.0310 h1         1 9GI       0.065700
     50 H12         -8.9020   -21.7230   -19.8610 hc         1 9GI       0.042922
     51 H13        -10.1400   -22.9090   -19.4000 hc         1 9GI       0.042922
     52 H14        -10.5270   -21.6290   -20.5680 hc         1 9GI       0.042922
     53 H15        -12.2690   -20.4430   -17.4150 hc         1 9GI       0.042922
     54 H16        -12.5010   -20.7740   -19.1510 hc         1 9GI       0.042922
     55 H17        -12.1990   -22.1020   -18.0200 hc         1 9GI       0.042922
     56 H18         -9.9070   -13.9570   -16.1220 h1         1 9GI       0.075700
     57 H19         -9.9440   -20.6810   -16.3510 hc         1 9GI       0.042922
     58 H20         -9.7090   -22.3210   -16.9580 hc         1 9GI       0.042922
     59 H21         -8.5370   -21.0630   -17.3660 hc         1 9GI       0.042922
     60 H22         -7.5520   -10.5530   -17.3510 hc         1 9GI       0.039450
     61 H23         -6.9060   -11.3310   -18.7880 hc         1 9GI       0.039450
     62 H24         -4.9140   -10.6740   -17.7370 hc         1 9GI       0.040700
     63 H25         -5.5660   -10.8210   -16.1150 hc         1 9GI       0.040700
     64 H26         -3.7470   -12.5860   -16.9820 hc         1 9GI       0.040700
     65 H27         -5.0550   -13.1050   -15.9270 hc         1 9GI       0.040700
     66 H28         -5.0920   -13.3110   -18.9930 hc         1 9GI       0.040700
     67 H29         -4.7800   -14.6550   -17.9030 hc         1 9GI       0.040700
     68 H30         -7.0140   -14.8290   -17.2250 hc         1 9GI       0.039450
     69 H31         -7.2360   -14.2520   -18.8700 hc         1 9GI       0.039450
     70 H32         -5.4570   -21.2210   -20.7950 ha         1 9GI       0.117500
     71 H33         -6.4980   -23.3410   -21.5660 ha         1 9GI       0.113500
     72 H34         -7.3650   -24.9880   -19.9070 ha         1 9GI       0.112000
     73 H35         -7.1790   -24.5090   -17.4670 ha         1 9GI       0.113500
     74 H36         -6.1300   -22.3950   -16.6860 ha         1 9GI       0.117500
     75 H37        -12.5510   -10.5330   -17.8890 hc         1 9GI       0.068700
     76 H38        -13.9940    -9.4700   -17.8170 hc         1 9GI       0.068700
     77 H39        -12.0280    -8.4340   -16.6830 hc         1 9GI       0.038367
     78 H40        -13.3240    -8.7570   -15.5120 hc         1 9GI       0.038367
     79 H41        -11.9040    -9.8240   -15.5840 hc         1 9GI       0.038367
     80 H42        -13.5200   -14.0530   -14.9410 h1         1 9GI       0.075200
     81 H43        -15.0090   -13.1190   -14.9740 h1         1 9GI       0.075200
     82 H44        -14.1260   -15.2300   -17.0170 hc         1 9GI       0.090700
     83 H45        -15.4740   -13.7450   -18.4350 hc         1 9GI       0.072200
     84 H46        -16.5890   -13.3890   -17.1080 hc         1 9GI       0.072200
     85 H47        -17.7470   -15.2510   -18.1870 h1         1 9GI       0.042700
     86 H48        -16.2210   -16.1060   -18.5330 h1         1 9GI       0.042700
     87 H49        -11.5030   -12.2810   -15.7320 hn         1 9GI       0.338500
     88 H50        -17.4550   -16.6720   -16.0960 hn         1 9GI       0.325500
     89 H51         -7.7770   -18.3830   -16.5890 hn         1 9GI       0.338500
     90 C15         -6.9880   -18.9040   -18.3800 c          1 9GI       0.648100
     91 C17        -10.4140   -20.9330   -18.4960 c3         1 9GI       0.194000
     92 C5         -14.1400   -11.2290   -16.5670 c          1 9GI       0.625100
     93 C6         -14.2410   -13.5710   -15.6150 c3         1 9GI       0.119000
     94 O3         -15.6320   -15.9500   -14.4880 o          1 9GI      -0.559000
     95 O5          -6.0870   -19.5380   -17.5790 os         1 9GI      -0.460100
     96 O6          -6.9680   -18.8660   -19.6000 o          1 9GI      -0.534000
@<TRIPOS>BOND
     1     1     4 1   
     2     1    13 1   
     3     1    39 1   
     4     2     4 1   
     5     2     8 1   
     6     2    34 1   
     7     2    40 1   
     8     3     4 2   
     9     5    29 1   
    10     5    33 1   
    11     5    94 2   
    12     6     7 1   
    13     6    13 1   
    14     6    41 1   
    15     6    42 1   
    16     7    15 1   
    17     7    19 1   
    18     7    43 1   
    19     8     9 1   
    20     8    38 1   
    21     8    44 1   
    22     9    45 1   
    23     9    46 1   
    24     9    47 1   
    25    10    20 1   
    26    10    48 1   
    27    10    49 1   
    28    10    95 1   
    29    11    50 1   
    30    11    51 1   
    31    11    52 1   
    32    11    91 1   
    33    12    53 1   
    34    12    54 1   
    35    12    55 1   
    36    12    91 1   
    37    13    24 1   
    38    13    56 1   
    39    14    57 1   
    40    14    58 1   
    41    14    59 1   
    42    14    91 1   
    43    15    16 1   
    44    15    60 1   
    45    15    61 1   
    46    16    17 1   
    47    16    62 1   
    48    16    63 1   
    49    17    18 1   
    50    17    64 1   
    51    17    65 1   
    52    18    19 1   
    53    18    66 1   
    54    18    67 1   
    55    19    68 1   
    56    19    69 1   
    57    20    21 ar  
    58    20    26 ar  
    59    21    22 ar  
    60    21    70 1   
    61    22    23 ar  
    62    22    71 1   
    63    23    25 ar  
    64    23    72 1   
    65    24    32 1   
    66    24    36 2   
    67    25    26 ar  
    68    25    73 1   
    69    26    74 1   
    70    27    28 1   
    71    27    75 1   
    72    27    76 1   
    73    27    92 1   
    74    28    77 1   
    75    28    78 1   
    76    28    79 1   
    77    29    30 1   
    78    29    82 1   
    79    29    93 1   
    80    30    31 1   
    81    30    83 1   
    82    30    84 1   
    83    31    33 1   
    84    31    85 1   
    85    31    86 1   
    86    32    35 1   
    87    32    87 1   
    88    33    88 1   
    89    34    89 1   
    90    34    90 1   
    91    35    92 1   
    92    35    93 1   
    93    37    92 2   
    94    38    91 1   
    95    80    93 1   
    96    81    93 1   
    97    90    95 1   
    98    90    96 2   
@<TRIPOS>SUBSTRUCTURE
     1 9GI         1 TEMP              0 ****  ****    0 ROOT
