@<TRIPOS>MOLECULE
9GI
   96    98     1     0     0
SMALL
abcg2


@<TRIPOS>ATOM
      1 N           -9.5350   -15.0720   -17.8840 ns         1 9GI      -0.480900
      2 C           -9.5680   -17.4930   -18.1140 c3         1 9GI       0.045700
      3 O          -10.5140   -16.2930   -16.2690 o          1 9GI      -0.612100
      4 C1          -9.9250   -16.2300   -17.3400 c          1 9GI       0.587100
      5 C10        -14.8920   -16.1800   -15.2710 c          1 9GI       0.564000
      6 C11         -9.1300   -12.6370   -17.9380 c3         1 9GI      -0.084400
      7 C12         -7.6340   -12.5080   -17.6470 c6         1 9GI      -0.060700
      8 C13        -10.8380   -18.2610   -18.5190 c3         1 9GI       0.168300
      9 C14        -11.7460   -17.3960   -19.3820 c3         1 9GI      -0.119100
     10 C16         -5.8050   -20.2810   -17.0690 c3         1 9GI       0.231900
     11 C18        -10.3100   -21.6230   -19.9200 c3         1 9GI      -0.107433
     12 C19        -12.4800   -20.6920   -19.1050 c3         1 9GI      -0.107433
     13 C2          -9.8260   -13.8120   -17.2460 c3         1 9GI       0.042700
     14 C20        -10.6080   -21.1200   -17.4980 c3         1 9GI      -0.107433
     15 C21         -7.1030   -11.1640   -18.1460 c6         1 9GI      -0.070900
     16 C22         -5.6840   -10.8980   -17.6220 c6         1 9GI      -0.072400
     17 C23         -4.8890   -12.1950   -17.4210 c6         1 9GI      -0.075400
     18 C24         -5.3130   -13.2400   -18.4440 c6         1 9GI      -0.072400
     19 C25         -6.7850   -13.6410   -18.2500 c6         1 9GI      -0.070900
     20 C26         -6.0980   -21.4880   -17.9160 ca         1 9GI      -0.129300
     21 C27         -5.5500   -21.6190   -19.1870 ca         1 9GI      -0.081000
     22 C28         -5.8160   -22.7430   -19.9590 ca         1 9GI      -0.117500
     23 C29         -6.6440   -23.7430   -19.4680 ca         1 9GI      -0.100000
     24 C3         -11.3350   -13.5820   -17.2810 c          1 9GI       0.587100
     25 C30         -7.1990   -23.6180   -18.2000 ca         1 9GI      -0.117500
     26 C31         -6.9230   -22.4990   -17.4280 ca         1 9GI      -0.081000
     27 C32        -12.8050   -10.6270   -17.0120 c3         1 9GI      -0.152400
     28 C33        -12.0080    -9.8940   -15.9330 c3         1 9GI      -0.083100
     29 C7         -14.1840   -15.1080   -16.0910 c5         1 9GI      -0.175700
     30 C8         -15.0880   -14.9500   -17.3110 c5         1 9GI      -0.090400
     31 C9         -15.7340   -16.3290   -17.4570 c5         1 9GI       0.099000
     32 N1         -11.8410   -13.0720   -16.1330 ns         1 9GI      -0.367500
     33 N2         -15.7560   -16.8020   -16.0890 ns         1 9GI      -0.513900
     34 N3          -8.7040   -18.2820   -17.2770 ns         1 9GI      -0.491900
     35 N4         -13.1750   -12.8320   -15.9750 n          1 9GI      -0.282400
     36 O1         -11.9960   -13.7770   -18.2790 o          1 9GI      -0.580100
     37 O2         -14.9340   -11.4810   -16.3400 o          1 9GI      -0.584100
     38 O4         -10.4080   -19.3980   -19.2270 os         1 9GI      -0.463000
     39 H1          -9.1180   -15.0700   -18.8020 hn         1 9GI       0.335500
     40 H2          -9.0170   -17.2360   -19.0200 h1         1 9GI       0.097700
     41 H3          -9.6190   -11.7220   -17.5910 hc         1 9GI       0.058200
     42 H4          -9.3070   -12.6870   -19.0180 hc         1 9GI       0.058200
     43 H5          -7.5190   -12.5250   -16.5560 hc         1 9GI       0.048700
     44 H6         -11.3730   -18.5360   -17.6020 h1         1 9GI       0.054700
     45 H7         -12.0850   -16.5090   -18.8480 hc         1 9GI       0.048367
     46 H8         -11.2280   -17.0680   -20.2850 hc         1 9GI       0.048367
     47 H9         -12.6340   -17.9500   -19.6840 hc         1 9GI       0.048367
     48 H10         -5.3970   -20.5820   -16.1040 h1         1 9GI       0.065700
     49 H11         -5.0740   -19.6320   -17.5530 h1         1 9GI       0.065700
     50 H12         -9.2240   -21.6210   -19.8090 hc         1 9GI       0.042922
     51 H13        -10.6590   -22.6440   -19.7640 hc         1 9GI       0.042922
     52 H14        -10.5520   -21.3390   -20.9450 hc         1 9GI       0.042922
     53 H15        -12.9910   -20.0360   -18.3970 hc         1 9GI       0.042922
     54 H16        -12.7550   -20.3860   -20.1160 hc         1 9GI       0.042922
     55 H17        -12.8640   -21.7000   -18.9440 hc         1 9GI       0.042922
     56 H18         -9.4830   -13.8550   -16.2080 h1         1 9GI       0.075700
     57 H19        -11.0530   -20.4770   -16.7370 hc         1 9GI       0.042922
     58 H20        -10.9830   -22.1290   -17.3230 hc         1 9GI       0.042922
     59 H21         -9.5290   -21.1350   -17.3480 hc         1 9GI       0.042922
     60 H22         -7.7690   -10.3520   -17.8430 hc         1 9GI       0.039450
     61 H23         -7.1100   -11.1690   -19.2410 hc         1 9GI       0.039450
     62 H24         -5.1580   -10.2460   -18.3240 hc         1 9GI       0.040700
     63 H25         -5.7350   -10.3510   -16.6780 hc         1 9GI       0.040700
     64 H26         -3.8180   -11.9960   -17.4910 hc         1 9GI       0.040700
     65 H27         -5.0590   -12.5890   -16.4140 hc         1 9GI       0.040700
     66 H28         -5.1650   -12.8300   -19.4480 hc         1 9GI       0.040700
     67 H29         -4.6770   -14.1250   -18.3840 hc         1 9GI       0.040700
     68 H30         -6.8450   -14.5260   -17.6120 hc         1 9GI       0.039450
     69 H31         -7.2000   -13.9300   -19.2210 hc         1 9GI       0.039450
     70 H32         -4.9110   -20.8370   -19.5770 ha         1 9GI       0.117500
     71 H33         -5.3810   -22.8340   -20.9460 ha         1 9GI       0.113500
     72 H34         -6.8560   -24.6170   -20.0700 ha         1 9GI       0.112000
     73 H35         -7.8440   -24.3950   -17.8110 ha         1 9GI       0.113500
     74 H36         -7.3530   -22.4150   -16.4360 ha         1 9GI       0.117500
     75 H37        -12.1290   -11.0530   -17.7530 hc         1 9GI       0.068700
     76 H38        -13.4390    -9.9150   -17.5390 hc         1 9GI       0.068700
     77 H39        -11.4450    -9.0760   -16.3830 hc         1 9GI       0.038367
     78 H40        -12.6660    -9.4660   -15.1770 hc         1 9GI       0.038367
     79 H41        -11.2930   -10.5450   -15.4320 hc         1 9GI       0.038367
     80 H42        -13.3790   -14.1130   -14.3650 h1         1 9GI       0.075200
     81 H43        -14.8760   -13.4120   -14.9580 h1         1 9GI       0.075200
     82 H44        -13.2240   -15.5480   -16.3910 hc         1 9GI       0.090700
     83 H45        -14.5480   -14.6450   -18.2030 hc         1 9GI       0.072200
     84 H46        -15.8570   -14.2010   -17.1080 hc         1 9GI       0.072200
     85 H47        -16.7400   -16.2810   -17.8730 h1         1 9GI       0.042700
     86 H48        -15.1370   -16.9890   -18.0940 h1         1 9GI       0.042700
     87 H49        -11.2600   -12.9730   -15.3120 hn         1 9GI       0.338500
     88 H50        -16.2620   -17.6270   -15.8050 hn         1 9GI       0.325500
     89 H51         -9.0490   -18.5470   -16.3660 hn         1 9GI       0.338500
     90 C15         -7.5430   -18.8120   -17.7070 c          1 9GI       0.648100
     91 C17        -10.9640   -20.6780   -18.9170 c3         1 9GI       0.194000
     92 C5         -13.7350   -11.6720   -16.4340 c          1 9GI       0.625100
     93 C6         -13.9320   -13.8540   -15.2700 c3         1 9GI       0.119000
     94 O3         -14.6970   -16.4320   -14.0930 o          1 9GI      -0.559000
     95 O5          -6.9930   -19.5600   -16.7400 os         1 9GI      -0.460100
     96 O6          -7.0390   -18.6280   -18.7940 o          1 9GI      -0.534000
@<TRIPOS>BOND
     1     1     4 1   
     2     1    13 1   
     3     1    39 1   
     4     2     4 1   
     5     2     8 1   
     6     2    34 1   
     7     2    40 1   
     8     3     4 2   
     9     5    29 1   
    10     5    33 1   
    11     5    94 2   
    12     6     7 1   
    13     6    13 1   
    14     6    41 1   
    15     6    42 1   
    16     7    15 1   
    17     7    19 1   
    18     7    43 1   
    19     8     9 1   
    20     8    38 1   
    21     8    44 1   
    22     9    45 1   
    23     9    46 1   
    24     9    47 1   
    25    10    20 1   
    26    10    48 1   
    27    10    49 1   
    28    10    95 1   
    29    11    50 1   
    30    11    51 1   
    31    11    52 1   
    32    11    91 1   
    33    12    53 1   
    34    12    54 1   
    35    12    55 1   
    36    12    91 1   
    37    13    24 1   
    38    13    56 1   
    39    14    57 1   
    40    14    58 1   
    41    14    59 1   
    42    14    91 1   
    43    15    16 1   
    44    15    60 1   
    45    15    61 1   
    46    16    17 1   
    47    16    62 1   
    48    16    63 1   
    49    17    18 1   
    50    17    64 1   
    51    17    65 1   
    52    18    19 1   
    53    18    66 1   
    54    18    67 1   
    55    19    68 1   
    56    19    69 1   
    57    20    21 ar  
    58    20    26 ar  
    59    21    22 ar  
    60    21    70 1   
    61    22    23 ar  
    62    22    71 1   
    63    23    25 ar  
    64    23    72 1   
    65    24    32 1   
    66    24    36 2   
    67    25    26 ar  
    68    25    73 1   
    69    26    74 1   
    70    27    28 1   
    71    27    75 1   
    72    27    76 1   
    73    27    92 1   
    74    28    77 1   
    75    28    78 1   
    76    28    79 1   
    77    29    30 1   
    78    29    82 1   
    79    29    93 1   
    80    30    31 1   
    81    30    83 1   
    82    30    84 1   
    83    31    33 1   
    84    31    85 1   
    85    31    86 1   
    86    32    35 1   
    87    32    87 1   
    88    33    88 1   
    89    34    89 1   
    90    34    90 1   
    91    35    92 1   
    92    35    93 1   
    93    37    92 2   
    94    38    91 1   
    95    80    93 1   
    96    81    93 1   
    97    90    95 1   
    98    90    96 2   
@<TRIPOS>SUBSTRUCTURE
     1 9GI         1 TEMP              0 ****  ****    0 ROOT
