@<TRIPOS>MOLECULE
9GJ
   50    52     1     0     0
SMALL
abcg2


@<TRIPOS>ATOM
      1 N1          -3.8960    -0.6040    -1.3180 nb         1 9GJ      -0.620000
      2 N3          -2.5030     0.3200     0.3290 n          1 9GJ      -0.428300
      3 C4          -6.1330     0.4290    -0.0690 ca         1 9GJ      -0.149000
      4 C5          -5.1040    -0.8270    -1.8260 ca         1 9GJ       0.259900
      5 C6           2.0440    -0.9620     0.5350 ca         1 9GJ      -0.051300
      6 C7          -4.8750     0.6270     0.4600 ca         1 9GJ      -0.060000
      7 C8           4.5580    -0.5400    -0.5890 ca         1 9GJ       0.048100
      8 C10          4.0240    -1.8150    -0.5140 ca         1 9GJ       0.189000
      9 C13         -1.6160    -0.7420     0.4860 c          1 9GJ       0.679100
     10 C15         -7.6720    -1.2420    -2.9020 c3         1 9GJ       0.145900
     11 C17          0.7060    -1.1080     2.6740 c3         1 9GJ       0.131600
     12 C1           2.5890     0.3190     0.4750 ca         1 9GJ      -0.099000
     13 C2           3.8370     0.5300    -0.0890 ca         1 9GJ      -0.080000
     14 C3           2.7790    -2.0330     0.0400 ca         1 9GJ      -0.139000
     15 C9          -6.2610    -0.3240    -1.2360 ca         1 9GJ       0.107100
     16 C11         -3.7730     0.0810    -0.2070 ca         1 9GJ       0.420900
     17 C12         -3.4720     1.8580     1.9960 c          1 9GJ       0.551000
     18 C14         -2.3390     1.5840     1.0230 c6         1 9GJ       0.022000
     19 C16          0.8280     0.4540     4.4080 c3         1 9GJ       0.143900
     20 C18          0.6910    -1.2340     1.1510 c3         1 9GJ       0.172000
     21 C19          5.9290    -0.0260    -2.4010 c3         1 9GJ       0.513000
     22 N2          -4.6700     1.3340     1.6370 ns         1 9GJ      -0.135000
     23 N4          -0.3180    -0.3710     0.5720 ns         1 9GJ      -0.509900
     24 O1          -3.3160     2.5240     2.9980 o          1 9GJ      -0.529000
     25 O2          -1.9900    -1.9000     0.5260 o          1 9GJ      -0.590100
     26 O3          -7.5040    -0.4970    -1.7090 os         1 9GJ      -0.333100
     27 O4           5.8280    -0.3710    -1.1070 os         1 9GJ      -0.386100
     28 F1           4.7300    -2.8450    -0.9820 f          1 9GJ      -0.153000
     29 F2           5.4410     1.1910    -2.6440 f          1 9GJ      -0.105333
     30 F3           7.2130    -0.0310    -2.7160 f          1 9GJ      -0.105333
     31 F4           5.2870    -0.8680    -3.2090 f          1 9GJ      -0.105333
     32 H1          -7.0110     0.8380     0.4170 ha         1 9GJ       0.138000
     33 H2          -5.1350    -1.4160    -2.7340 h4         1 9GJ       0.031100
     34 H3          -8.7370    -1.2460    -3.1150 h1         1 9GJ       0.046033
     35 H4          -7.1450    -0.7860    -3.7440 h1         1 9GJ       0.046033
     36 H5          -7.3300    -2.2740    -2.7880 h1         1 9GJ       0.046033
     37 H6          -0.2530    -1.4800     3.0630 h1         1 9GJ       0.040200
     38 H7           1.4920    -1.7570     3.0850 h1         1 9GJ       0.040200
     39 H8           2.0560     1.1710     0.8730 ha         1 9GJ       0.133000
     40 H9           4.2580     1.5260    -0.1180 ha         1 9GJ       0.139000
     41 H10          2.3880    -3.0420     0.0790 ha         1 9GJ       0.142000
     42 H11         -1.4190     1.5780     1.6040 h1         1 9GJ       0.085200
     43 H12         -2.2800     2.4220     0.3200 h1         1 9GJ       0.085200
     44 H13          0.9950     1.5160     4.5860 h1         1 9GJ       0.034367
     45 H14         -0.1550     0.1840     4.8110 h1         1 9GJ       0.034367
     46 H15          1.5870    -0.1140     4.9570 h1         1 9GJ       0.034367
     47 H16          0.4190    -2.2650     0.9240 h1         1 9GJ       0.094700
     48 H17         -5.4710     1.5600     2.2120 hn         1 9GJ       0.166000
     49 H18         -0.0670     0.5870     0.3940 hn         1 9GJ       0.323500
     50 O5           0.9030     0.2320     3.0220 os         1 9GJ      -0.467000
@<TRIPOS>BOND
     1     1     4 ar  
     2     1    16 ar  
     3     2     9 1   
     4     2    16 1   
     5     2    18 1   
     6     3     6 ar  
     7     3    15 ar  
     8     3    32 1   
     9     4    15 ar  
    10     4    33 1   
    11     5    12 ar  
    12     5    14 ar  
    13     5    20 1   
    14     6    16 ar  
    15     6    22 1   
    16     7     8 ar  
    17     7    13 ar  
    18     7    27 1   
    19     8    14 ar  
    20     8    28 1   
    21     9    23 1   
    22     9    25 2   
    23    10    26 1   
    24    10    34 1   
    25    10    35 1   
    26    10    36 1   
    27    11    20 1   
    28    11    37 1   
    29    11    38 1   
    30    11    50 1   
    31    12    13 ar  
    32    12    39 1   
    33    13    40 1   
    34    14    41 1   
    35    15    26 1   
    36    17    18 1   
    37    17    22 1   
    38    17    24 2   
    39    18    42 1   
    40    18    43 1   
    41    19    44 1   
    42    19    45 1   
    43    19    46 1   
    44    19    50 1   
    45    20    23 1   
    46    20    47 1   
    47    21    27 1   
    48    21    29 1   
    49    21    30 1   
    50    21    31 1   
    51    22    48 1   
    52    23    49 1   
@<TRIPOS>SUBSTRUCTURE
     1 9GJ         1 TEMP              0 ****  ****    0 ROOT
