@<TRIPOS>MOLECULE
9GJ
   50    52     1     0     0
SMALL
No Charge or Current Charge


@<TRIPOS>ATOM
      1 N1          -4.2940    -1.1370    -0.9850 nb         1 9GJ      -0.620000
      2 N3          -2.5130     0.1910    -0.0800 n          1 9GJ      -0.428300
      3 C4          -6.1920     0.8140    -0.1750 ca         1 9GJ      -0.149000
      4 C5          -5.6240    -1.3270    -1.1710 ca         1 9GJ       0.259900
      5 C6           2.0730    -1.1150     0.3460 ca         1 9GJ      -0.051300
      6 C7          -4.8130     1.0140     0.0070 ca         1 9GJ      -0.060000
      7 C8           4.6300    -0.4310    -0.6950 ca         1 9GJ       0.048100
      8 C10          4.0860    -1.7170    -0.8980 ca         1 9GJ       0.189000
      9 C13         -1.6830    -0.8580     0.3670 c          1 9GJ       0.679100
     10 C15         -8.4830    -1.7830    -1.5690 c3         1 9GJ       0.145900
     11 C17          0.6680    -1.5950     2.4450 c3         1 9GJ       0.131600
     12 C1           2.6110     0.1730     0.5490 ca         1 9GJ      -0.099000
     13 C2           3.8760     0.5160     0.0380 ca         1 9GJ      -0.080000
     14 C3           2.8230    -2.0560    -0.3860 ca         1 9GJ      -0.139000
     15 C9          -6.6130    -0.3870    -0.7700 ca         1 9GJ       0.107100
     16 C11         -3.9020     0.0080    -0.3850 ca         1 9GJ       0.420900
     17 C12         -2.9930     2.6820     0.2950 c          1 9GJ       0.551000
     18 C14         -2.0080     1.6030    -0.2340 c6         1 9GJ       0.022000
     19 C16          0.7360    -0.2530     4.4620 c3         1 9GJ       0.143900
     20 C18          0.6940    -1.4950     0.8930 c3         1 9GJ       0.172000
     21 C19          6.5610     1.1120    -1.0960 c3         1 9GJ       0.513000
     22 N2          -4.3010     2.2560     0.4450 ns         1 9GJ      -0.135000
     23 N4          -0.3370    -0.5910     0.3720 ns         1 9GJ      -0.509900
     24 O1          -2.6320     3.8130     0.5950 o          1 9GJ      -0.529000
     25 O2          -2.1120    -1.9380     0.7420 o          1 9GJ      -0.590100
     26 O3          -7.9680    -0.5850    -0.9600 os         1 9GJ      -0.333100
     27 O4           5.8840    -0.1550    -1.2250 os         1 9GJ      -0.386100
     28 F1           4.7810    -2.6460    -1.5960 f          1 9GJ      -0.153000
     29 F2           6.7960     1.4340     0.1970 f          1 9GJ      -0.105333
     30 F3           7.7620     1.0760    -1.7150 f          1 9GJ      -0.105333
     31 F4           5.8600     2.1240    -1.6570 f          1 9GJ      -0.105333
     32 H1          -6.9160     1.5760     0.1030 ha         1 9GJ       0.138000
     33 H2          -5.8970    -2.2660    -1.6510 h4         1 9GJ       0.031100
     34 H3          -9.5780    -1.7420    -1.6230 h1         1 9GJ       0.046033
     35 H4          -8.0970    -1.8980    -2.5900 h1         1 9GJ       0.046033
     36 H5          -8.2040    -2.6690    -0.9850 h1         1 9GJ       0.046033
     37 H6          -0.2630    -2.0860     2.7570 h1         1 9GJ       0.040200
     38 H7           1.5050    -2.2220     2.7780 h1         1 9GJ       0.040200
     39 H8           2.0500     0.9170     1.1090 ha         1 9GJ       0.133000
     40 H9           4.2470     1.5190     0.2230 ha         1 9GJ       0.139000
     41 H10          2.4330    -3.0560    -0.5630 ha         1 9GJ       0.142000
     42 H11         -1.0740     1.7690     0.3180 h1         1 9GJ       0.085200
     43 H12         -1.8360     1.8190    -1.2980 h1         1 9GJ       0.085200
     44 H13          0.8040     0.7790     4.8280 h1         1 9GJ       0.034367
     45 H14         -0.1940    -0.6910     4.8470 h1         1 9GJ       0.034367
     46 H15          1.5830    -0.8180     4.8720 h1         1 9GJ       0.034367
     47 H16          0.4590    -2.5000     0.5170 h1         1 9GJ       0.094700
     48 H17         -4.9660     2.9310     0.7990 hn         1 9GJ       0.166000
     49 H18         -0.0460     0.3070     0.0170 hn         1 9GJ       0.323500
     50 O5           0.7540    -0.2750     3.0250 os         1 9GJ      -0.467000
@<TRIPOS>BOND
     1     1     4 ar  
     2     1    16 ar  
     3     2     9 1   
     4     2    16 1   
     5     2    18 1   
     6     3     6 ar  
     7     3    15 ar  
     8     3    32 1   
     9     4    15 ar  
    10     4    33 1   
    11     5    12 ar  
    12     5    14 ar  
    13     5    20 1   
    14     6    16 ar  
    15     6    22 1   
    16     7     8 ar  
    17     7    13 ar  
    18     7    27 1   
    19     8    14 ar  
    20     8    28 1   
    21     9    23 1   
    22     9    25 2   
    23    10    26 1   
    24    10    34 1   
    25    10    35 1   
    26    10    36 1   
    27    11    20 1   
    28    11    37 1   
    29    11    38 1   
    30    11    50 1   
    31    12    13 ar  
    32    12    39 1   
    33    13    40 1   
    34    14    41 1   
    35    15    26 1   
    36    17    18 1   
    37    17    22 1   
    38    17    24 2   
    39    18    42 1   
    40    18    43 1   
    41    19    44 1   
    42    19    45 1   
    43    19    46 1   
    44    19    50 1   
    45    20    23 1   
    46    20    47 1   
    47    21    27 1   
    48    21    29 1   
    49    21    30 1   
    50    21    31 1   
    51    22    48 1   
    52    23    49 1   
@<TRIPOS>SUBSTRUCTURE
     1 9GJ         1 TEMP              0 ****  ****    0 ROOT
