@<TRIPOS>MOLECULE
9GK
   40    42     1     0     0
SMALL
abcg2


@<TRIPOS>ATOM
      1 C10          5.2590    -0.9690     0.0660 ca         1 9GK      -0.073300
      2 C13          7.8830     0.0060     0.0290 ca         1 9GK      -0.116000
      3 C15          5.9260    -0.6760     1.2540 ca         1 9GK      -0.104000
      4 C17         -1.0110    -3.9070    -0.7670 cc         1 9GK      -0.204500
      5 C01          0.6840     1.4940     0.0920 ca         1 9GK      -0.100000
      6 C02          0.5410     0.1150     0.0660 ca         1 9GK       0.060100
      7 C03         -0.7480    -0.4280     0.0150 ca         1 9GK      -0.007200
      8 C04         -1.8570     0.4080    -0.0070 ca         1 9GK       0.130000
      9 C05         -1.7210     1.7990     0.0230 ca         1 9GK       0.218100
     10 C06         -0.4230     2.3330     0.0730 ca         1 9GK      -0.229600
     11 C07         -0.2370     3.8350     0.1020 c          1 9GK       0.723600
     12 C08          2.8810    -0.2650     0.0860 c3         1 9GK       0.167600
     13 C09          3.8330    -1.4480     0.0850 c3         1 9GK      -0.038100
     14 C11          5.9250    -0.7650    -1.1400 ca         1 9GK      -0.104000
     15 C12          7.2270    -0.2830    -1.1610 ca         1 9GK      -0.112000
     16 C14          7.2280    -0.1930     1.2370 ca         1 9GK      -0.112000
     17 C16         -0.8630    -2.5990    -1.1430 cd         1 9GK      -0.170500
     18 C18         -1.1270    -3.9270     0.6490 cc         1 9GK      -0.204500
     19 C19         -1.0510    -2.6300     1.0810 cd         1 9GK      -0.170500
     20 I01         -3.7860    -0.4010    -0.0970 i          1 9GK      -0.324000
     21 N01         -0.8930    -1.8290    -0.0150 na         1 9GK       0.141200
     22 O01         -2.7890     2.5840     0.0030 oh         1 9GK      -0.608100
     23 O02          1.5570    -0.7690     0.0830 os         1 9GK      -0.349100
     24 O03         -1.3080     4.5170     0.0710 o          1 9GK      -0.682500
     25 O04          0.9040     4.2940     0.1520 o          1 9GK      -0.682500
     26 H1           8.8980     0.3800     0.0140 ha         1 9GK       0.105000
     27 H2           5.4250    -0.8320     2.2020 ha         1 9GK       0.113500
     28 H5           3.0530     0.3590     0.9710 h1         1 9GK       0.039200
     29 H6           3.0530     0.3610    -0.7970 h1         1 9GK       0.039200
     30 H7           3.6350    -2.0720    -0.7900 hc         1 9GK       0.059700
     31 H8           3.6530    -2.0630     0.9700 hc         1 9GK       0.059700
     32 H9           5.4230    -0.9910    -2.0730 ha         1 9GK       0.113500
     33 H10          7.7300    -0.1340    -2.1080 ha         1 9GK       0.107000
     34 H11          7.7320     0.0250     2.1700 ha         1 9GK       0.107000
     35 H12         -0.7400    -2.1510    -2.1160 h4         1 9GK       0.143500
     36 H13         -1.2550    -4.7940     1.2780 ha         1 9GK       0.115000
     37 H14         -1.1000    -2.2090     2.0720 h4         1 9GK       0.143500
     38 H15         -2.3800     3.5300     0.0260 ho         1 9GK       0.553000
     39 H3          -1.0320    -4.7560    -1.4320 ha         1 9GK       0.115000
     40 H4           1.6630     1.9530     0.1320 ha         1 9GK       0.139000
@<TRIPOS>BOND
     1     1     3 ar  
     2     1    13 1   
     3     1    14 ar  
     4     2    15 ar  
     5     2    16 ar  
     6     2    26 1   
     7     3    16 ar  
     8     3    27 1   
     9     4    17 2   
    10     4    18 1   
    11     4    39 1   
    12     5     6 ar  
    13     5    10 ar  
    14     5    40 1   
    15     6     7 ar  
    16     6    23 1   
    17     7     8 ar  
    18     7    21 1   
    19     8     9 ar  
    20     8    20 1   
    21     9    10 ar  
    22     9    22 1   
    23    10    11 1   
    24    11    24 1   
    25    11    25 1   
    26    12    13 1   
    27    12    23 1   
    28    12    28 1   
    29    12    29 1   
    30    13    30 1   
    31    13    31 1   
    32    14    15 ar  
    33    14    32 1   
    34    15    33 1   
    35    16    34 1   
    36    17    21 1   
    37    17    35 1   
    38    18    19 2   
    39    18    36 1   
    40    19    21 1   
    41    19    37 1   
    42    22    38 1   
@<TRIPOS>SUBSTRUCTURE
     1 9GK         1 TEMP              0 ****  ****    0 ROOT
