@<TRIPOS>MOLECULE
9GK
   40    42     1     0     0
SMALL
No Charge or Current Charge


@<TRIPOS>ATOM
      1 C10          5.2070    -1.0430     0.0550 ca         1 9GK      -0.073300
      2 C13          7.9280    -0.3030     0.0850 ca         1 9GK      -0.116000
      3 C15          5.8820    -0.8680     1.2790 ca         1 9GK      -0.104000
      4 C17         -0.4830    -3.7320    -0.7360 cc         1 9GK      -0.204500
      5 C01          0.5060     1.5690     0.0440 ca         1 9GK      -0.100000
      6 C02          0.3570     0.1640     0.0280 ca         1 9GK       0.060100
      7 C03         -0.9380    -0.4030     0.0110 ca         1 9GK      -0.007200
      8 C04         -2.0660     0.4410     0.0100 ca         1 9GK       0.130000
      9 C05         -1.9110     1.8460     0.0260 ca         1 9GK       0.218100
     10 C06         -0.6210     2.4280     0.0430 ca         1 9GK      -0.229600
     11 C07         -0.4270     3.9330     0.0610 c          1 9GK       0.723600
     12 C08          2.8100    -0.2050     0.0440 c3         1 9GK       0.167600
     13 C09          3.7350    -1.4350     0.0390 c3         1 9GK      -0.038100
     14 C11          5.9020    -0.8430    -1.1540 ca         1 9GK      -0.104000
     15 C12          7.2590    -0.4750    -1.1390 ca         1 9GK      -0.112000
     16 C14          7.2390    -0.5000     1.2940 ca         1 9GK      -0.112000
     17 C16         -0.8090    -2.4740    -1.1760 cd         1 9GK      -0.170500
     18 C18         -0.4910    -3.7500     0.6800 cc         1 9GK      -0.204500
     19 C19         -0.8230    -2.5050     1.1500 cd         1 9GK      -0.170500
     20 I01         -4.0810    -0.4290    -0.0160 i          1 9GK      -0.324000
     21 N01         -1.1260    -1.7870    -0.0050 na         1 9GK       0.141200
     22 O01         -3.0170     2.6480     0.0250 oh         1 9GK      -0.608100
     23 O02          1.4540    -0.6810     0.0280 os         1 9GK      -0.349100
     24 O03         -1.4260     4.6420     0.0600 o          1 9GK      -0.682500
     25 O04          0.7100     4.3780     0.0750 o          1 9GK      -0.682500
     26 H1           8.9770    -0.0180     0.0970 ha         1 9GK       0.105000
     27 H2           5.3560    -1.0150     2.2200 ha         1 9GK       0.113500
     28 H5           3.0030     0.3930     0.9450 h1         1 9GK       0.039200
     29 H6           3.0180     0.4110    -0.8410 h1         1 9GK       0.039200
     30 H7           3.5150    -2.0430    -0.8470 hc         1 9GK       0.059700
     31 H8           3.5000    -2.0610     0.9090 hc         1 9GK       0.059700
     32 H9           5.3910    -0.9720    -2.1060 ha         1 9GK       0.113500
     33 H10          7.7910    -0.3220    -2.0750 ha         1 9GK       0.107000
     34 H11          7.7550    -0.3660     2.2420 ha         1 9GK       0.107000
     35 H12         -0.8470    -2.0350    -2.1660 h4         1 9GK       0.143500
     36 H13         -0.2150    -4.6090     1.2860 ha         1 9GK       0.115000
     37 H14         -0.8710    -2.0930     2.1500 h4         1 9GK       0.143500
     38 H15         -2.6530     3.5800     0.0380 ho         1 9GK       0.553000
     39 H3          -0.2000    -4.5740    -1.3620 ha         1 9GK       0.115000
     40 H4           1.4990     2.0100     0.0570 ha         1 9GK       0.139000
@<TRIPOS>BOND
     1     1     3 ar  
     2     1    13 1   
     3     1    14 ar  
     4     2    15 ar  
     5     2    16 ar  
     6     2    26 1   
     7     3    16 ar  
     8     3    27 1   
     9     4    17 2   
    10     4    18 1   
    11     4    39 1   
    12     5     6 ar  
    13     5    10 ar  
    14     5    40 1   
    15     6     7 ar  
    16     6    23 1   
    17     7     8 ar  
    18     7    21 1   
    19     8     9 ar  
    20     8    20 1   
    21     9    10 ar  
    22     9    22 1   
    23    10    11 1   
    24    11    24 1   
    25    11    25 1   
    26    12    13 1   
    27    12    23 1   
    28    12    28 1   
    29    12    29 1   
    30    13    30 1   
    31    13    31 1   
    32    14    15 ar  
    33    14    32 1   
    34    15    33 1   
    35    16    34 1   
    36    17    21 1   
    37    17    35 1   
    38    18    19 2   
    39    18    36 1   
    40    19    21 1   
    41    19    37 1   
    42    22    38 1   
@<TRIPOS>SUBSTRUCTURE
     1 9GK         1 TEMP              0 ****  ****    0 ROOT
