@<TRIPOS>MOLECULE
9GL
   57    60     1     0     0
SMALL
bcc


@<TRIPOS>ATOM
      1 CAA          4.4380     3.3960     0.8830 c3         1 9GL      -0.084100
      2 CAB          4.1740     2.5880    -0.3870 c3         1 9GL      -0.010200
      3 CAC          4.0820     1.1210    -0.1220 cc         1 9GL      -0.046400
      4 CAD          2.9710     0.3560     0.1380 cd         1 9GL      -0.146300
      5 CAE          1.5630     0.7980     0.2050 c          1 9GL       0.696300
      6 CAG         -0.7780     0.1170    -0.0750 c3         1 9GL       0.097000
      7 CAH         -1.5640    -1.1710     0.1520 c3         1 9GL      -0.037100
      8 CAI         -3.0450    -0.9170     0.1090 ca         1 9GL      -0.120300
      9 CAJ         -3.7900    -0.7540     1.2750 ca         1 9GL      -0.094500
     10 CAK         -5.1440    -0.4730     1.2360 ca         1 9GL      -0.175000
     11 CAL         -5.8260    -0.3490     0.0170 ca         1 9GL       0.158600
     12 CAN         -7.7840     0.3370    -1.2600 c6         1 9GL       0.199300
     13 CAO         -9.1230     1.0300    -1.0480 c6         1 9GL      -0.080400
     14 CAP        -10.0700     0.1730    -0.2210 c6         1 9GL      -0.075400
     15 CAQ         -9.3950    -0.2330     1.0830 c6         1 9GL      -0.080400
     16 CAR         -8.0560    -0.8980     0.8090 c6         1 9GL       0.199300
     17 CAS         -5.0780    -0.5180    -1.1530 ca         1 9GL      -0.175000
     18 CAT         -3.7170    -0.7880    -1.0990 ca         1 9GL      -0.094500
     19 CAW          4.6880    -1.0650     0.2010 ca         1 9GL      -0.032200
     20 CAX          5.5240    -2.1740     0.3270 ca         1 9GL      -0.145000
     21 CAY          6.8760    -1.9820     0.1460 ca         1 9GL      -0.092000
     22 CAZ          7.3790    -0.7040    -0.1540 ca         1 9GL      -0.007600
     23 CBB          6.5670     0.4000    -0.2750 ca         1 9GL      -0.056000
     24 CBC          5.1910     0.2200    -0.0870 ca         1 9GL      -0.113800
     25 NAF          0.6450    -0.1450    -0.0820 ns         1 9GL      -0.578900
     26 NAM         -7.1880    -0.0390     0.0090 nh         1 9GL      -0.650000
     27 NAV          3.3380    -0.9600     0.3130 na         1 9GL      -0.166400
     28 OAU          1.2730     1.9460     0.5140 o          1 9GL      -0.580100
     29 CL           9.0950    -0.5270    -0.3760 cl         1 9GL      -0.120400
     30 H1           4.5300     4.4580     0.6540 hc         1 9GL       0.037700
     31 H2           3.6200     3.2720     1.5910 hc         1 9GL       0.037700
     32 H3           5.3600     3.0790     1.3720 hc         1 9GL       0.037700
     33 H4           3.2600     2.9460    -0.8590 hc         1 9GL       0.050700
     34 H5           4.9800     2.7660    -1.1040 hc         1 9GL       0.050700
     35 H6          -1.0900     0.5790    -1.0180 h1         1 9GL       0.059700
     36 H7          -0.9980     0.8300     0.7200 h1         1 9GL       0.059700
     37 H8          -1.2900    -1.9040    -0.6130 hc         1 9GL       0.046200
     38 H9          -1.2820    -1.5980     1.1170 hc         1 9GL       0.046200
     39 H10         -3.3000    -0.8400     2.2390 ha         1 9GL       0.127000
     40 H11         -5.6750    -0.3270     2.1690 ha         1 9GL       0.133500
     41 H13         -7.1100     1.0220    -1.7770 h1         1 9GL       0.035950
     42 H14         -8.9520     1.9850    -0.5410 hc         1 9GL       0.048450
     43 H15         -9.5580     1.2610    -2.0220 hc         1 9GL       0.048450
     44 H16        -11.0010     0.7080    -0.0240 hc         1 9GL       0.040700
     45 H17        -10.3370    -0.7280    -0.7840 hc         1 9GL       0.040700
     46 H18         -9.2390     0.6470     1.7140 hc         1 9GL       0.048450
     47 H19        -10.0240    -0.9240     1.6470 hc         1 9GL       0.048450
     48 H20         -7.5680    -1.1380     1.7510 h1         1 9GL       0.035950
     49 H21         -8.2270    -1.8550     0.2900 h1         1 9GL       0.035950
     50 H22         -5.5480    -0.4540    -2.1250 ha         1 9GL       0.133500
     51 H23         -3.1750    -0.9180    -2.0300 ha         1 9GL       0.127000
     52 H24          5.1330    -3.1570     0.5560 ha         1 9GL       0.137000
     53 H25          7.5560    -2.8180     0.2340 ha         1 9GL       0.146000
     54 H26          6.9790     1.3740    -0.5060 ha         1 9GL       0.152000
     55 H27          0.9450    -0.9860    -0.5510 hn         1 9GL       0.306500
     56 H28          2.7320    -1.6960     0.6370 hn         1 9GL       0.301700
     57 H12         -7.9230    -0.5340    -1.9210 h1         1 9GL       0.035950
@<TRIPOS>BOND
     1     1     2 1   
     2     1    30 1   
     3     1    31 1   
     4     1    32 1   
     5     2     3 1   
     6     2    33 1   
     7     2    34 1   
     8     3     4 2   
     9     3    24 1   
    10     4     5 1   
    11     4    27 1   
    12     5    25 1   
    13     5    28 2   
    14     6     7 1   
    15     6    25 1   
    16     6    35 1   
    17     6    36 1   
    18     7     8 1   
    19     7    37 1   
    20     7    38 1   
    21     8     9 ar  
    22     8    18 ar  
    23     9    10 ar  
    24     9    39 1   
    25    10    11 ar  
    26    10    40 1   
    27    11    17 ar  
    28    11    26 1   
    29    12    13 1   
    30    12    26 1   
    31    12    41 1   
    32    12    57 1   
    33    13    14 1   
    34    13    42 1   
    35    13    43 1   
    36    14    15 1   
    37    14    44 1   
    38    14    45 1   
    39    15    16 1   
    40    15    46 1   
    41    15    47 1   
    42    16    26 1   
    43    16    48 1   
    44    16    49 1   
    45    17    18 ar  
    46    17    50 1   
    47    18    51 1   
    48    19    20 ar  
    49    19    24 ar  
    50    19    27 1   
    51    20    21 ar  
    52    20    52 1   
    53    21    22 ar  
    54    21    53 1   
    55    22    23 ar  
    56    22    29 1   
    57    23    24 ar  
    58    23    54 1   
    59    25    55 1   
    60    27    56 1   
@<TRIPOS>SUBSTRUCTURE
     1 9GL         1 TEMP              0 ****  ****    0 ROOT
