@<TRIPOS>MOLECULE
9GL
   57    60     1     0     0
SMALL
No Charge or Current Charge


@<TRIPOS>ATOM
      1 CAA          4.4080     3.3810     0.8960 c3         1 9GL      -0.084100
      2 CAB          4.3080     2.6020    -0.4280 c3         1 9GL      -0.010200
      3 CAC          4.1800     1.1100    -0.2160 cc         1 9GL      -0.046400
      4 CAD          3.0290     0.3100    -0.1160 cd         1 9GL      -0.146300
      5 CAE          1.6200     0.8240    -0.1880 c          1 9GL       0.629300
      6 CAG         -0.7780     0.0810    -0.1150 c3         1 9GL       0.097000
      7 CAH         -1.5890    -1.2180     0.0470 c3         1 9GL      -0.037100
      8 CAI         -3.0890    -0.9590     0.0090 ca         1 9GL      -0.120300
      9 CAJ         -3.7920    -0.6810     1.1960 ca         1 9GL      -0.076500
     10 CAK         -5.1760    -0.4370     1.1580 ca         1 9GL      -0.157000
     11 CAL         -5.8790    -0.4640    -0.0610 ca         1 9GL       0.297000
     12 CAN         -7.9340     0.3840    -1.2690 c6         1 9GL       0.199300
     13 CAO         -9.1890     1.1980    -0.8660 c6         1 9GL      -0.080400
     14 CAP        -10.1690     0.3460    -0.0250 c6         1 9GL      -0.075400
     15 CAQ         -9.4350    -0.2560     1.1960 c6         1 9GL      -0.080400
     16 CAR         -8.1800    -1.0530     0.7590 c6         1 9GL       0.199300
     17 CAS         -5.1690    -0.7410    -1.2470 ca         1 9GL      -0.157000
     18 CAT         -3.7850    -0.9870    -1.2130 ca         1 9GL      -0.076500
     19 CAW          4.8080    -1.0440     0.1230 ca         1 9GL      -0.032200
     20 CAX          5.6580    -2.1410     0.3170 ca         1 9GL      -0.127000
     21 CAY          7.0500    -1.9080     0.3370 ca         1 9GL      -0.074000
     22 CAZ          7.5540    -0.5980     0.1660 ca         1 9GL       0.084000
     23 CBB          6.6730     0.4860    -0.0270 ca         1 9GL      -0.038000
     24 CBC          5.2940     0.2190    -0.0440 ca         1 9GL      -0.113800
     25 NAF          0.6660    -0.1640    -0.0790 ns         1 9GL      -0.511900
     26 NAM         -7.2720    -0.2150    -0.0750 nh         1 9GL      -0.788400
     27 NAV          3.4300    -1.0460     0.0790 na         1 9GL      -0.216700
     28 OAU          1.3040     1.9970    -0.3240 o          1 9GL      -0.580100
     29 Cl           9.2910    -0.3190     0.1950 cl         1 9GL      -0.212000
     30 H1           4.5160     4.4540     0.7030 hc         1 9GL       0.037700
     31 H2           3.5070     3.2280     1.5020 hc         1 9GL       0.037700
     32 H3           5.2760     3.0460     1.4770 hc         1 9GL       0.037700
     33 H4           3.4780     2.9920    -1.0250 hc         1 9GL       0.050700
     34 H5           5.2070     2.8080    -1.0200 hc         1 9GL       0.050700
     35 H6          -1.0340     0.5550    -1.0720 h1         1 9GL       0.059700
     36 H7          -1.0400     0.7780     0.6930 h1         1 9GL       0.059700
     37 H8          -1.3070    -1.9180    -0.7490 hc         1 9GL       0.046200
     38 H9          -1.3130    -1.6980     0.9930 hc         1 9GL       0.046200
     39 H10         -3.2670    -0.6490     2.1480 ha         1 9GL       0.109000
     40 H11         -5.7030    -0.2120     2.0800 ha         1 9GL       0.115500
     41 H13         -7.2400     1.0550    -1.7960 h1         1 9GL       0.035950
     42 H14         -8.8800     2.0810    -0.2900 hc         1 9GL       0.048450
     43 H15         -9.6930     1.5730    -1.7670 hc         1 9GL       0.048450
     44 H16        -11.0160     0.9610     0.3070 hc         1 9GL       0.040700
     45 H17        -10.5860    -0.4610    -0.6440 hc         1 9GL       0.040700
     46 H18         -9.1360     0.5480     1.8820 hc         1 9GL       0.048450
     47 H19        -10.1140    -0.9120     1.7570 hc         1 9GL       0.048450
     48 H20         -7.6630    -1.4150     1.6600 h1         1 9GL       0.035950
     49 H21         -8.4950    -1.9390     0.1880 h1         1 9GL       0.035950
     50 H22         -5.6870    -0.7790    -2.2000 ha         1 9GL       0.115500
     51 H23         -3.2550    -1.1990    -2.1390 ha         1 9GL       0.109000
     52 H24          5.2590    -3.1440     0.4500 ha         1 9GL       0.119000
     53 H25          7.7380    -2.7380     0.4850 ha         1 9GL       0.128000
     54 H26          7.0570     1.4940    -0.1560 ha         1 9GL       0.134000
     55 H27          0.9900    -1.1140     0.0270 hn         1 9GL       0.306500
     56 H28          2.8340    -1.8600     0.1890 hn         1 9GL       0.352000
     57 H12         -8.2260    -0.4100    -1.9740 h1         1 9GL       0.035950
@<TRIPOS>BOND
     1     1     2 1   
     2     1    30 1   
     3     1    31 1   
     4     1    32 1   
     5     2     3 1   
     6     2    33 1   
     7     2    34 1   
     8     3     4 2   
     9     3    24 1   
    10     4     5 1   
    11     4    27 1   
    12     5    25 1   
    13     5    28 2   
    14     6     7 1   
    15     6    25 1   
    16     6    35 1   
    17     6    36 1   
    18     7     8 1   
    19     7    37 1   
    20     7    38 1   
    21     8     9 ar  
    22     8    18 ar  
    23     9    10 ar  
    24     9    39 1   
    25    10    11 ar  
    26    10    40 1   
    27    11    17 ar  
    28    11    26 1   
    29    12    13 1   
    30    12    26 1   
    31    12    41 1   
    32    12    57 1   
    33    13    14 1   
    34    13    42 1   
    35    13    43 1   
    36    14    15 1   
    37    14    44 1   
    38    14    45 1   
    39    15    16 1   
    40    15    46 1   
    41    15    47 1   
    42    16    26 1   
    43    16    48 1   
    44    16    49 1   
    45    17    18 ar  
    46    17    50 1   
    47    18    51 1   
    48    19    20 ar  
    49    19    24 ar  
    50    19    27 1   
    51    20    21 ar  
    52    20    52 1   
    53    21    22 ar  
    54    21    53 1   
    55    22    23 ar  
    56    22    29 1   
    57    23    24 ar  
    58    23    54 1   
    59    25    55 1   
    60    27    56 1   
@<TRIPOS>SUBSTRUCTURE
     1 9GL         1 TEMP              0 ****  ****    0 ROOT
