@<TRIPOS>MOLECULE
9GM
   45    47     1     0     0
SMALL
bcc


@<TRIPOS>ATOM
      1 C1           6.0080    -1.7460     1.3650 cc         1 9GM       0.619800
      2 C2           4.3890    -1.1260    -0.0070 cd         1 9GM       0.080800
      3 C3           4.4330    -2.2660    -0.7880 cc         1 9GM       0.151800
      4 C4           2.9140    -1.0550    -1.6230 cd         1 9GM       0.480400
      5 C5           3.0130     0.9550    -0.0990 c5         1 9GM       0.275800
      6 C6           1.3340     2.3480    -0.8980 c5         1 9GM       0.151100
      7 N2           5.1430    -0.8120     1.0560 nd         1 9GM      -0.668100
      8 O1           1.6310     1.1000    -0.2630 os         1 9GM      -0.321600
      9 O4          -2.8570     3.8750    -0.3450 o          1 9GM      -0.883000
     10 O5          -3.3090     1.4290    -0.8980 os         1 9GM      -0.707800
     11 O6          -5.4240     0.8580     0.4050 o          1 9GM      -0.902500
     12 P1          -2.4770     2.4690     0.0180 p5         1 9GM       1.459800
     13 O7          -4.6750    -0.5390    -1.6500 o          1 9GM      -0.902500
     14 O8          -2.8510    -3.1750    -0.3650 o          1 9GM      -0.900167
     15 O9          -5.0140    -2.7170     0.9210 o          1 9GM      -0.900167
     16 P2          -4.3280     0.1820    -0.3790 p5         1 9GM       1.465700
     17 O10         -2.7580    -2.6720     2.1460 o          1 9GM      -0.900167
     18 O11          2.6280     3.7430     0.5440 oh         1 9GM      -0.550800
     19 O12          3.8260     1.6820    -2.2170 oh         1 9GM      -0.564800
     20 N1           6.8070    -1.5930     2.4300 nv         1 9GM      -0.954800
     21 N3           3.4990    -2.2000    -1.7910 nc         1 9GM      -0.639000
     22 N4           3.4050    -0.3590    -0.5470 na         1 9GM      -0.186900
     23 C7           0.0840     2.9490    -0.3020 c3         1 9GM       0.219400
     24 O2          -1.0060     2.1330    -0.6630 os         1 9GM      -0.525200
     25 O3          -2.4550     2.0670     1.4640 o          1 9GM      -0.883000
     26 N5          -3.2910    -0.7410     0.5460 n7         1 9GM      -0.946400
     27 P3          -3.5060    -2.4770     0.8240 p5         1 9GM       1.300800
     28 C8           2.5990     3.1790    -0.7440 c5         1 9GM       0.061100
     29 C9           3.6720     2.0940    -0.8880 c5         1 9GM       0.039100
     30 C10          5.3730    -3.2830    -0.4570 c          1 9GM       0.669000
     31 O13          5.5690    -4.3540    -1.0080 o          1 9GM      -0.665500
     32 N6           6.1250    -2.9120     0.6650 ns         1 9GM      -0.525400
     33 H1           2.1130    -0.6690    -2.2320 h5         1 9GM       0.091100
     34 H2           3.2930     1.0250     0.9560 h2         1 9GM       0.091700
     35 H3           1.1670     2.1790    -1.9680 h1         1 9GM       0.066700
     36 H7           3.4400     4.2520     0.6360 ho         1 9GM       0.362000
     37 H8           4.1980     2.4120    -2.7230 ho         1 9GM       0.378000
     38 H9           6.8470    -0.6850     2.8610 hn         1 9GM       0.413300
     39 H10          7.6030    -2.1920     2.5710 hn         1 9GM       0.413300
     40 H11          0.1840     3.0290     0.7850 h1         1 9GM       0.012200
     41 H12         -0.0340     3.9660    -0.6980 h1         1 9GM       0.012200
     42 H14         -2.9560    -0.2440     1.3610 hn         1 9GM       0.381800
     43 H15          2.6760     3.9420    -1.5290 h1         1 9GM       0.024700
     44 H16          4.6260     2.3870    -0.4340 h1         1 9GM       0.020700
     45 H17          6.8110    -3.5890     0.9750 hn         1 9GM       0.283500
@<TRIPOS>BOND
     1     1     7 2   
     2     1    20 1   
     3     1    32 1   
     4     2     3 2   
     5     2     7 1   
     6     2    22 1   
     7     3    21 1   
     8     3    30 1   
     9     4    21 2   
    10     4    22 1   
    11     4    33 1   
    12     5     8 1   
    13     5    22 1   
    14     5    29 1   
    15     5    34 1   
    16     6     8 1   
    17     6    23 1   
    18     6    28 1   
    19     6    35 1   
    20     9    12 1   
    21    10    12 1   
    22    10    16 1   
    23    11    16 1   
    24    12    24 1   
    25    12    25 1   
    26    13    16 1   
    27    14    27 1   
    28    15    27 1   
    29    16    26 1   
    30    17    27 1   
    31    18    28 1   
    32    18    36 1   
    33    19    29 1   
    34    19    37 1   
    35    20    38 1   
    36    20    39 1   
    37    23    24 1   
    38    23    40 1   
    39    23    41 1   
    40    26    27 1   
    41    26    42 1   
    42    28    29 1   
    43    28    43 1   
    44    29    44 1   
    45    30    31 2   
    46    30    32 1   
    47    32    45 1   
@<TRIPOS>SUBSTRUCTURE
     1 9GM         1 TEMP              0 ****  ****    0 ROOT
