@<TRIPOS>MOLECULE
9GM
   45    47     1     0     0
SMALL
No Charge or Current Charge


@<TRIPOS>ATOM
      1 C1           6.4010    -1.3120     1.7020 cc         1 9GM       0.619800
      2 C2           4.4200    -0.9130     0.6970 cd         1 9GM       0.095400
      3 C3           4.1800    -2.2540     0.5510 cc         1 9GM       0.086500
      4 C4           2.4770    -1.2440    -0.3070 cd         1 9GM       0.480400
      5 C5           3.1390     1.1830     0.0600 c5         1 9GM       0.328300
      6 C6           1.2080     2.3140    -0.6770 c5         1 9GM       0.174300
      7 N2           5.5660    -0.3830     1.2910 nd         1 9GM      -0.668100
      8 O1           1.7640     1.5040     0.3880 os         1 9GM      -0.368000
      9 O4          -1.2140     1.2950     1.8300 o          1 9GM      -0.883000
     10 O5          -3.1990     1.4910     0.2710 os         1 9GM      -0.707800
     11 O6          -3.5890    -0.7960     1.3860 o          1 9GM      -0.902500
     12 P1          -1.6450     1.2640     0.4000 p5         1 9GM       1.459800
     13 O7          -5.4980     0.6300     0.6750 o          1 9GM      -0.902500
     14 O8          -4.7130    -1.6010    -2.9770 o          1 9GM      -0.900167
     15 O9          -5.5020    -2.2510    -0.7510 o          1 9GM      -0.900167
     16 P2          -4.0930     0.2040     0.4070 p5         1 9GM       1.465700
     17 O10         -3.1100    -2.4600    -1.3540 o          1 9GM      -0.900167
     18 O11          2.9490     4.0900    -0.3850 oh         1 9GM      -0.673000
     19 O12          3.0990     0.9860    -2.4620 oh         1 9GM      -0.687000
     20 N1           7.5210    -0.9030     2.2740 nv         1 9GM      -1.065200
     21 N3           2.9710    -2.4660    -0.0730 nc         1 9GM      -0.639000
     22 N4           3.3400    -0.2570     0.1560 na         1 9GM      -0.165500
     23 C7           0.0680     3.2360    -0.1520 c3         1 9GM       0.242600
     24 O2          -1.2220     2.6320    -0.3440 os         1 9GM      -0.548400
     25 O3          -1.1410     0.0860    -0.3660 o          1 9GM      -0.883000
     26 N5          -3.9570    -0.2620    -1.1070 n7         1 9GM      -1.001600
     27 P3          -4.3670    -1.7100    -1.5390 p5         1 9GM       1.300800
     28 C8           2.4550     3.0590    -1.2560 c5         1 9GM       0.084300
     29 C9           3.4240     1.8410    -1.3460 c5         1 9GM       0.062300
     30 C10          5.1660    -3.2530     1.0400 c          1 9GM       0.526500
     31 O13          5.0640    -4.4720     0.9690 o          1 9GM      -0.590000
     32 N6           6.2510    -2.6550     1.6030 ns         1 9GM      -0.458400
     33 H1           1.5360    -1.0040    -0.7920 h5         1 9GM       0.091100
     34 H2           3.7940     1.6370     0.8140 h2         1 9GM       0.091700
     35 H3           0.7910     1.6490    -1.4450 h1         1 9GM       0.066700
     36 H7           3.6500     4.5780    -0.8750 ho         1 9GM       0.461000
     37 H8           3.4640     1.4090    -3.2730 ho         1 9GM       0.477000
     38 H9           7.7160     0.0850     2.1600 hn         1 9GM       0.468500
     39 H10          8.3230    -1.5210     2.2360 hn         1 9GM       0.468500
     40 H11          0.2390     3.4750     0.9060 h1         1 9GM       0.012200
     41 H12          0.1010     4.1810    -0.7100 h1         1 9GM       0.012200
     42 H14         -3.0340    -0.6410    -0.9190 hn         1 9GM       0.437000
     43 H15          2.2390     3.4800    -2.2470 h1         1 9GM       0.024700
     44 H16          4.4720     2.1600    -1.4200 h1         1 9GM       0.020700
     45 H17          6.9640    -3.2620     1.9750 hn         1 9GM       0.283500
@<TRIPOS>BOND
     1     1     7 2   
     2     1    20 1   
     3     1    32 1   
     4     2     3 2   
     5     2     7 1   
     6     2    22 1   
     7     3    21 1   
     8     3    30 1   
     9     4    21 2   
    10     4    22 1   
    11     4    33 1   
    12     5     8 1   
    13     5    22 1   
    14     5    29 1   
    15     5    34 1   
    16     6     8 1   
    17     6    23 1   
    18     6    28 1   
    19     6    35 1   
    20     9    12 1   
    21    10    12 1   
    22    10    16 1   
    23    11    16 1   
    24    12    24 1   
    25    12    25 1   
    26    13    16 1   
    27    14    27 1   
    28    15    27 1   
    29    16    26 1   
    30    17    27 1   
    31    18    28 1   
    32    18    36 1   
    33    19    29 1   
    34    19    37 1   
    35    20    38 1   
    36    20    39 1   
    37    23    24 1   
    38    23    40 1   
    39    23    41 1   
    40    26    27 1   
    41    26    42 1   
    42    28    29 1   
    43    28    43 1   
    44    29    44 1   
    45    30    31 2   
    46    30    32 1   
    47    32    45 1   
@<TRIPOS>SUBSTRUCTURE
     1 9GM         1 TEMP              0 ****  ****    0 ROOT
