@<TRIPOS>MOLECULE
9GN
   33    34     1     0     0
SMALL
bcc


@<TRIPOS>ATOM
      1 C10         -0.4460    -2.6740    -1.1390 cc         1 9GN      -0.135800
      2 C13         -0.4850    -2.6160     1.0950 cc         1 9GN      -0.135800
      3 C01          0.8140     2.1650    -0.1200 ca         1 9GN      -0.260600
      4 C02          1.7850     1.1770    -0.0720 ca         1 9GN      -0.044000
      5 C03          1.4500    -0.1700    -0.0440 ca         1 9GN      -0.041100
      6 C04          0.0960    -0.5190    -0.0660 ca         1 9GN       0.047800
      7 C05         -0.8850     0.4630    -0.1150 ca         1 9GN      -0.029100
      8 C06         -0.5500     1.8200    -0.1420 ca         1 9GN       0.249100
      9 I01         -2.9120    -0.0610    -0.1450 i          1 9GN      -0.187900
     10 C07          4.2090    -0.6300     0.0730 c3         1 9GN      -0.007300
     11 C08          5.3260    -1.6640     0.1090 c3         1 9GN      -0.065400
     12 N01         -0.2550    -1.8850    -0.0380 na         1 9GN       0.019800
     13 O01         -1.4880     2.7490    -0.1860 oh         1 9GN      -0.570100
     14 O02          0.2400     4.4480    -0.1900 o          1 9GN      -0.784800
     15 O03          2.4020     3.9230    -0.1340 o          1 9GN      -0.784800
     16 C11         -0.7990    -3.9230    -0.7050 cd         1 9GN      -0.218500
     17 C12         -0.8240    -3.8860     0.7150 cd         1 9GN      -0.218500
     18 C14          6.6910    -0.9920     0.1730 c3         1 9GN      -0.088100
     19 H1          -0.3140    -2.2790    -2.1330 h4         1 9GN       0.165000
     20 H2          -0.3870    -2.1700     2.0720 h4         1 9GN       0.165000
     21 H3           2.8190     1.4930    -0.0560 ha         1 9GN       0.152000
     22 H4           4.3150     0.0090    -0.8050 h1         1 9GN       0.067200
     23 H5           4.2480     0.0020     0.9630 h1         1 9GN       0.067200
     24 H6           5.1960    -2.3190     0.9750 hc         1 9GN       0.045700
     25 H7           5.2670    -2.3000    -0.7780 hc         1 9GN       0.045700
     26 H8          -0.9390     3.6330    -0.1960 ho         1 9GN       0.518000
     27 H10         -1.0160    -4.7710    -1.3360 ha         1 9GN       0.134000
     28 H11         -1.0630    -4.7000     1.3810 ha         1 9GN       0.134000
     29 H12          6.8570    -0.3510    -0.6950 hc         1 9GN       0.030367
     30 H13          6.7840    -0.3720     1.0660 hc         1 9GN       0.030367
     31 H14          7.4900    -1.7320     0.1970 hc         1 9GN       0.030367
     32 S01          2.6160    -1.4930     0.0100 ss         1 9GN      -0.268000
     33 C09          1.2090     3.6240    -0.1490 c          1 9GN       0.936200
@<TRIPOS>BOND
     1     1    12 1   
     2     1    16 2   
     3     1    19 1   
     4     2    12 1   
     5     2    17 2   
     6     2    20 1   
     7     3     4 ar  
     8     3     8 ar  
     9     3    33 1   
    10     4     5 ar  
    11     4    21 1   
    12     5     6 ar  
    13     5    32 1   
    14     6     7 ar  
    15     6    12 1   
    16     7     8 ar  
    17     7     9 1   
    18     8    13 1   
    19    10    11 1   
    20    10    22 1   
    21    10    23 1   
    22    10    32 1   
    23    11    18 1   
    24    11    24 1   
    25    11    25 1   
    26    13    26 1   
    27    14    33 1   
    28    15    33 1   
    29    16    17 1   
    30    16    27 1   
    31    17    28 1   
    32    18    29 1   
    33    18    30 1   
    34    18    31 1   
@<TRIPOS>SUBSTRUCTURE
     1 9GN         1 TEMP              0 ****  ****    0 ROOT
