@<TRIPOS>MOLECULE
9GN
   33    34     1     0     0
SMALL
No Charge or Current Charge


@<TRIPOS>ATOM
      1 C10         -0.7080    -2.6100    -1.1540 cc         1 9GN      -0.168500
      2 C13         -0.0890    -2.6130     1.0850 cc         1 9GN      -0.168500
      3 C01          0.7490     2.2470    -0.3410 ca         1 9GN      -0.260600
      4 C02          1.7330     1.2580    -0.5660 ca         1 9GN      -0.026000
      5 C03          1.4240    -0.1120    -0.4760 ca         1 9GN      -0.168000
      6 C04          0.1050    -0.5160    -0.1700 ca         1 9GN       0.047800
      7 C05         -0.8880     0.4590     0.0580 ca         1 9GN       0.108000
      8 C06         -0.5650     1.8320    -0.0260 ca         1 9GN       0.249100
      9 I01         -2.9420    -0.1460     0.5490 i          1 9GN      -0.325000
     10 C07          4.2160    -0.6420     0.0170 c3         1 9GN       0.040600
     11 C08          5.3520    -1.6830     0.0170 c3         1 9GN      -0.065400
     12 N01         -0.2180    -1.8700    -0.0840 na         1 9GN       0.121200
     13 O01         -1.5360     2.7670     0.1980 oh         1 9GN      -0.609100
     14 O02          0.2400     4.5410    -0.2480 o          1 9GN      -0.679500
     15 O03          2.2720     4.0070    -0.7160 o          1 9GN      -0.679500
     16 C11         -0.8960    -3.8640    -0.6340 cd         1 9GN      -0.200500
     17 C12         -0.5180    -3.8660     0.7310 cd         1 9GN      -0.200500
     18 C14          6.6450    -1.1590     0.6710 c3         1 9GN      -0.088100
     19 H1          -0.8710    -2.1970    -2.1420 h4         1 9GN       0.147000
     20 H2           0.2780    -2.2030     2.0170 h4         1 9GN       0.147000
     21 H3           2.7450     1.5580    -0.8260 ha         1 9GN       0.134000
     22 H4           4.5360     0.2510    -0.5340 h1         1 9GN       0.067200
     23 H5           3.9760    -0.3530     1.0490 h1         1 9GN       0.067200
     24 H6           5.0180    -2.5820     0.5510 hc         1 9GN       0.045700
     25 H7           5.5680    -1.9830    -1.0160 hc         1 9GN       0.045700
     26 H8          -1.0680     3.6440     0.0760 ho         1 9GN       0.557000
     27 H10         -1.2740    -4.7200    -1.1860 ha         1 9GN       0.116000
     28 H11         -0.5600    -4.7240     1.3970 ha         1 9GN       0.116000
     29 H12          7.0200    -0.2780     0.1370 hc         1 9GN       0.030367
     30 H13          6.4660    -0.8820     1.7170 hc         1 9GN       0.030367
     31 H14          7.4240    -1.9310     0.6490 hc         1 9GN       0.030367
     32 S01          2.7000    -1.3440    -0.7740 ss         1 9GN      -0.189000
     33 C09          1.1190     3.7120    -0.4440 c          1 9GN       0.725600
@<TRIPOS>BOND
     1     1    12 1   
     2     1    16 2   
     3     1    19 1   
     4     2    12 1   
     5     2    17 2   
     6     2    20 1   
     7     3     4 ar  
     8     3     8 ar  
     9     3    33 1   
    10     4     5 ar  
    11     4    21 1   
    12     5     6 ar  
    13     5    32 1   
    14     6     7 ar  
    15     6    12 1   
    16     7     8 ar  
    17     7     9 1   
    18     8    13 1   
    19    10    11 1   
    20    10    22 1   
    21    10    23 1   
    22    10    32 1   
    23    11    18 1   
    24    11    24 1   
    25    11    25 1   
    26    13    26 1   
    27    14    33 1   
    28    15    33 1   
    29    16    17 1   
    30    16    27 1   
    31    17    28 1   
    32    18    29 1   
    33    18    30 1   
    34    18    31 1   
@<TRIPOS>SUBSTRUCTURE
     1 9GN         1 TEMP              0 ****  ****    0 ROOT
