@<TRIPOS>MOLECULE
9GP
   31    31     1     0     0
SMALL
No Charge or Current Charge


@<TRIPOS>ATOM
      1 O2          -0.0590     2.9190     0.2580 oh         1 9GP      -0.715000
      2 C2          -0.5440     1.6470    -0.2360 c6         1 9GP       0.100300
      3 C3          -2.0040     1.4200     0.2510 c6         1 9GP       0.139300
      4 O3          -2.8480     2.4930    -0.2010 oh         1 9GP      -0.667000
      5 C4          -2.5370     0.0460    -0.2500 c6         1 9GP       0.143300
      6 O4          -3.8760    -0.1610     0.2400 oh         1 9GP      -0.715000
      7 C5          -1.5560    -1.0810     0.2050 c6         1 9GP       0.178300
      8 C6          -1.9750    -2.4880    -0.3380 c3         1 9GP       0.172600
      9 O6          -1.0590    -3.5420     0.0270 oh         1 9GP      -0.706000
     10 O5          -0.2150    -0.7840    -0.2710 os         1 9GP      -0.462000
     11 C1           0.3400     0.4440     0.2380 c6         1 9GP       0.302700
     12 N1           1.6930     0.5240    -0.3010 ns         1 9GP      -0.515900
     13 C7           2.7810    -0.1500     0.2090 c          1 9GP       0.608100
     14 O7           2.7160    -0.7720     1.2630 o          1 9GP      -0.536100
     15 C9           4.0770    -0.0300    -0.6510 c3         1 9GP       0.079600
     16 O9           5.2440    -0.6600    -0.0640 oh         1 9GP      -0.618000
     17 HO2          0.8950     2.9880     0.0160 ho         1 9GP       0.515000
     18 H2          -0.5450     1.6520    -1.3360 h1         1 9GP       0.048700
     19 H3          -1.9900     1.4000     1.3520 h1         1 9GP       0.059700
     20 HO3         -2.2820     3.2980    -0.1280 ho         1 9GP       0.466000
     21 H4          -2.5460     0.0630    -1.3510 h1         1 9GP       0.051700
     22 HO4         -4.3120     0.7230     0.1610 ho         1 9GP       0.525000
     23 H5          -1.5410    -1.1300     1.3030 h1         1 9GP       0.067700
     24 H6          -2.9780    -2.7190     0.0450 h1         1 9GP       0.034700
     25 H6A         -2.0540    -2.4210    -1.4320 h1         1 9GP       0.034700
     26 HO6         -1.3750    -4.3630    -0.4160 ho         1 9GP       0.503000
     27 H1           0.3810     0.4150     1.3390 h2         1 9GP       0.089700
     28 HN1          1.8220     0.9780    -1.1970 hn         1 9GP       0.306500
     29 H9           3.8600    -0.4730    -1.6320 h1         1 9GP       0.031700
     30 H9A          4.2660     1.0390    -0.8110 h1         1 9GP       0.031700
     31 HO9          5.9940    -0.5280    -0.6860 ho         1 9GP       0.446000
@<TRIPOS>BOND
     1     1     2 1   
     2     1    17 1   
     3     2     3 1   
     4     2    11 1   
     5     2    18 1   
     6     3     4 1   
     7     3     5 1   
     8     3    19 1   
     9     4    20 1   
    10     5     6 1   
    11     5     7 1   
    12     5    21 1   
    13     6    22 1   
    14     7     8 1   
    15     7    10 1   
    16     7    23 1   
    17     8     9 1   
    18     8    24 1   
    19     8    25 1   
    20     9    26 1   
    21    10    11 1   
    22    11    12 1   
    23    11    27 1   
    24    12    13 1   
    25    12    28 1   
    26    13    14 2   
    27    13    15 1   
    28    15    16 1   
    29    15    29 1   
    30    15    30 1   
    31    16    31 1   
@<TRIPOS>SUBSTRUCTURE
     1 9GP         1 TEMP              0 ****  ****    0 ROOT
