@<TRIPOS>MOLECULE
9GP
   31    31     1     0     0
SMALL
abcg2


@<TRIPOS>ATOM
      1 O2           0.0790     2.7210     0.3240 oh         1 9GP      -0.715000
      2 C2          -0.4560     1.5630    -0.2650 c6         1 9GP       0.100300
      3 C3          -1.8790     1.3980     0.2490 c6         1 9GP       0.139300
      4 O3          -2.7250     2.4310    -0.1950 oh         1 9GP      -0.667000
      5 C4          -2.4790     0.0800    -0.2260 c6         1 9GP       0.143300
      6 O4          -3.7250    -0.1600     0.3790 oh         1 9GP      -0.715000
      7 C5          -1.5410    -1.0720     0.1410 c6         1 9GP       0.178300
      8 C6          -2.0350    -2.4000    -0.3930 c3         1 9GP       0.172600
      9 O6          -1.1670    -3.4150     0.0530 oh         1 9GP      -0.706000
     10 O5          -0.2620    -0.8330    -0.4080 os         1 9GP      -0.462000
     11 C1           0.3590     0.3220     0.1060 c6         1 9GP       0.302700
     12 N1           1.6760     0.4070    -0.4320 ns         1 9GP      -0.515900
     13 C7           2.7760    -0.0760     0.1990 c          1 9GP       0.608100
     14 O7           2.7630    -0.5370     1.3210 o          1 9GP      -0.536100
     15 C9           4.0400     0.0360    -0.6320 c3         1 9GP       0.079600
     16 O9           5.1110    -0.4650     0.1100 oh         1 9GP      -0.618000
     17 HO2          0.8870     2.9630    -0.1380 ho         1 9GP       0.515000
     18 H2          -0.4840     1.6470    -1.3630 h1         1 9GP       0.048700
     19 H3          -1.8420     1.3710     1.3510 h1         1 9GP       0.059700
     20 HO3         -2.4700     3.2480     0.2460 ho         1 9GP       0.466000
     21 H4          -2.5700     0.1130    -1.3240 h1         1 9GP       0.051700
     22 HO4         -4.3190     0.5590     0.1410 ho         1 9GP       0.525000
     23 H5          -1.4740    -1.1320     1.2400 h1         1 9GP       0.067700
     24 H6          -3.0580    -2.5560    -0.0380 h1         1 9GP       0.034700
     25 H6A         -2.0760    -2.3510    -1.4900 h1         1 9GP       0.034700
     26 HO6         -1.5210    -4.2580    -0.2420 ho         1 9GP       0.503000
     27 H1           0.4390     0.2590     1.1980 h2         1 9GP       0.089700
     28 HN1          1.7660     0.6850    -1.3990 hn         1 9GP       0.306500
     29 H9           3.8800    -0.5140    -1.5700 h1         1 9GP       0.031700
     30 H9A          4.1750     1.0900    -0.9120 h1         1 9GP       0.031700
     31 HO9          5.9040    -0.3770    -0.4260 ho         1 9GP       0.446000
@<TRIPOS>BOND
     1     1     2 1   
     2     1    17 1   
     3     2     3 1   
     4     2    11 1   
     5     2    18 1   
     6     3     4 1   
     7     3     5 1   
     8     3    19 1   
     9     4    20 1   
    10     5     6 1   
    11     5     7 1   
    12     5    21 1   
    13     6    22 1   
    14     7     8 1   
    15     7    10 1   
    16     7    23 1   
    17     8     9 1   
    18     8    24 1   
    19     8    25 1   
    20     9    26 1   
    21    10    11 1   
    22    11    12 1   
    23    11    27 1   
    24    12    13 1   
    25    12    28 1   
    26    13    14 2   
    27    13    15 1   
    28    15    16 1   
    29    15    29 1   
    30    15    30 1   
    31    16    31 1   
@<TRIPOS>SUBSTRUCTURE
     1 9GP         1 TEMP              0 ****  ****    0 ROOT
