@<TRIPOS>MOLECULE
9GQ
   36    37     1     0     0
SMALL
No Charge or Current Charge


@<TRIPOS>ATOM
      1 C10          6.1650    -0.6680     0.1100 c3         1 9GQ      -0.076400
      2 C13          0.6320    -3.6730    -0.7530 cc         1 9GQ      -0.204500
      3 C15          7.1630    -1.8420     0.1080 c3         1 9GQ      -0.086100
      4 C01          1.2870     1.6780     0.0590 ca         1 9GQ      -0.101000
      5 C02          1.2250     0.2660     0.0320 ca         1 9GQ       0.062100
      6 C03         -0.0340    -0.3780    -0.0040 ca         1 9GQ      -0.007200
      7 C04         -1.2110     0.3960    -0.0130 ca         1 9GQ       0.131000
      8 C05         -1.1410     1.8070     0.0140 ca         1 9GQ       0.217100
      9 C06          0.1100     2.4660     0.0500 ca         1 9GQ      -0.230600
     10 C07          0.2120     3.9800     0.0800 c          1 9GQ       0.723600
     11 C08          3.6950     0.0480     0.0750 c3         1 9GQ       0.165600
     12 C09          4.6910    -1.1270     0.0730 c3         1 9GQ      -0.081400
     13 C11          0.1880    -2.4720     1.1280 cd         1 9GQ      -0.170500
     14 C12          0.6000    -3.6950     0.6640 cc         1 9GQ      -0.204500
     15 C14          0.2400    -2.4360    -1.1970 cd         1 9GQ      -0.170500
     16 I01         -3.1680    -0.5950    -0.0690 i          1 9GQ      -0.325000
     17 N01         -0.1370    -1.7710    -0.0320 na         1 9GQ       0.142200
     18 O01         -2.2940     2.5410     0.0050 oh         1 9GQ      -0.609100
     19 O02          1.3190     4.4940     0.1110 o          1 9GQ      -0.684000
     20 O03         -0.8280     4.6270     0.0720 o          1 9GQ      -0.684000
     21 O04          2.3710    -0.5100     0.0400 os         1 9GQ      -0.347100
     22 H1           6.3340    -0.0580     1.0060 hc         1 9GQ       0.038700
     23 H2           6.3680    -0.0260    -0.7570 hc         1 9GQ       0.038700
     24 H4           8.1940    -1.4680     0.1340 hc         1 9GQ       0.028367
     25 H5           7.0090    -2.4840     0.9830 hc         1 9GQ       0.028367
     26 H6           7.0430    -2.4520    -0.7960 hc         1 9GQ       0.028367
     27 H8           3.8390     0.6490     0.9830 h1         1 9GQ       0.033700
     28 H9           3.8730     0.6810    -0.8030 h1         1 9GQ       0.033700
     29 H10          4.5230    -1.7360    -0.8240 hc         1 9GQ       0.051700
     30 H11          4.4900    -1.7680     0.9410 hc         1 9GQ       0.051700
     31 H12          0.0970    -2.0650     2.1280 h4         1 9GQ       0.143500
     32 H13          0.9160    -4.5370     1.2740 ha         1 9GQ       0.114000
     33 H14          0.1940    -1.9980    -2.1870 h4         1 9GQ       0.143500
     34 H15         -1.9870     3.4930     0.0290 ho         1 9GQ       0.553000
     35 H3           0.9750    -4.4960    -1.3740 ha         1 9GQ       0.114000
     36 H7           2.2510     2.1780     0.0870 ha         1 9GQ       0.139000
@<TRIPOS>BOND
     1     1     3 1   
     2     1    12 1   
     3     1    22 1   
     4     1    23 1   
     5     2    14 1   
     6     2    15 2   
     7     2    35 1   
     8     3    24 1   
     9     3    25 1   
    10     3    26 1   
    11     4     5 ar  
    12     4     9 ar  
    13     4    36 1   
    14     5     6 ar  
    15     5    21 1   
    16     6     7 ar  
    17     6    17 1   
    18     7     8 ar  
    19     7    16 1   
    20     8     9 ar  
    21     8    18 1   
    22     9    10 1   
    23    10    19 1   
    24    10    20 1   
    25    11    12 1   
    26    11    21 1   
    27    11    27 1   
    28    11    28 1   
    29    12    29 1   
    30    12    30 1   
    31    13    14 2   
    32    13    17 1   
    33    13    31 1   
    34    14    32 1   
    35    15    17 1   
    36    15    33 1   
    37    18    34 1   
@<TRIPOS>SUBSTRUCTURE
     1 9GQ         1 TEMP              0 ****  ****    0 ROOT
