@<TRIPOS>MOLECULE
9GQ
   36    37     1     0     0
SMALL
bcc


@<TRIPOS>ATOM
      1 C10          6.2040    -0.4650     0.0840 c3         1 9GQ      -0.076400
      2 C13          0.1250    -3.8860    -0.7490 cc         1 9GQ      -0.222500
      3 C15          7.2780    -1.5420     0.0780 c3         1 9GQ      -0.086100
      4 C01          1.4200     1.6340     0.0800 ca         1 9GQ      -0.119000
      5 C02          1.3840     0.2480     0.0540 ca         1 9GQ       0.062100
      6 C03          0.1390    -0.3910     0.0080 ca         1 9GQ      -0.007200
      7 C04         -1.0300     0.3580    -0.0150 ca         1 9GQ      -0.006100
      8 C05         -1.0020     1.7550     0.0120 ca         1 9GQ       0.217100
      9 C06          0.2510     2.3860     0.0610 ca         1 9GQ      -0.230600
     10 C07          0.3240     3.8970     0.0950 c          1 9GQ       0.934200
     11 C08          3.7480     0.0470     0.0840 c3         1 9GQ       0.142400
     12 C09          4.7940    -1.0460     0.0770 c3         1 9GQ      -0.081400
     13 C11         -0.0150    -2.6000     1.0880 cd         1 9GQ      -0.137800
     14 C12         -0.0050    -3.9030     0.6660 cc         1 9GQ      -0.222500
     15 C14          0.1910    -2.5740    -1.1340 cd         1 9GQ      -0.137800
     16 I01         -2.8930    -0.5950    -0.1040 i          1 9GQ      -0.187900
     17 N01          0.1000    -1.7990    -0.0130 na         1 9GQ       0.040800
     18 O01         -2.1270     2.4560    -0.0100 oh         1 9GQ      -0.570100
     19 O02          1.4280     4.4410     0.1480 o          1 9GQ      -0.789300
     20 O03         -0.7950     4.4960     0.0650 o          1 9GQ      -0.789300
     21 O04          2.4640    -0.5560     0.0720 os         1 9GQ      -0.323900
     22 H1           6.3290     0.1740     0.9630 hc         1 9GQ       0.038700
     23 H2           6.3320     0.1880    -0.7850 hc         1 9GQ       0.038700
     24 H4           8.2770    -1.1060     0.0830 hc         1 9GQ       0.028367
     25 H5           7.1940    -2.1870     0.9540 hc         1 9GQ       0.028367
     26 H6           7.1970    -2.1750    -0.8070 hc         1 9GQ       0.028367
     27 H8           3.8630     0.6770     0.9740 h1         1 9GQ       0.033700
     28 H9           3.8700     0.6950    -0.7920 h1         1 9GQ       0.033700
     29 H10          4.6610    -1.6770    -0.8070 hc         1 9GQ       0.051700
     30 H11          4.6580    -1.6910     0.9510 hc         1 9GQ       0.051700
     31 H12         -0.0990    -2.1770     2.0760 h4         1 9GQ       0.161500
     32 H13         -0.0840    -4.7720     1.3010 ha         1 9GQ       0.132000
     33 H14          0.2910    -2.1260    -2.1100 h4         1 9GQ       0.161500
     34 H15         -1.7910     3.4320     0.0160 ho         1 9GQ       0.514000
     35 H3           0.1670    -4.7390    -1.4070 ha         1 9GQ       0.132000
     36 H7           2.3580     2.1700     0.1200 ha         1 9GQ       0.157000
@<TRIPOS>BOND
     1     1     3 1   
     2     1    12 1   
     3     1    22 1   
     4     1    23 1   
     5     2    14 1   
     6     2    15 2   
     7     2    35 1   
     8     3    24 1   
     9     3    25 1   
    10     3    26 1   
    11     4     5 ar  
    12     4     9 ar  
    13     4    36 1   
    14     5     6 ar  
    15     5    21 1   
    16     6     7 ar  
    17     6    17 1   
    18     7     8 ar  
    19     7    16 1   
    20     8     9 ar  
    21     8    18 1   
    22     9    10 1   
    23    10    19 1   
    24    10    20 1   
    25    11    12 1   
    26    11    21 1   
    27    11    27 1   
    28    11    28 1   
    29    12    29 1   
    30    12    30 1   
    31    13    14 2   
    32    13    17 1   
    33    13    31 1   
    34    14    32 1   
    35    15    17 1   
    36    15    33 1   
    37    18    34 1   
@<TRIPOS>SUBSTRUCTURE
     1 9GQ         1 TEMP              0 ****  ****    0 ROOT
