@<TRIPOS>MOLECULE
9GR
   50    54     1     0     0
SMALL
bcc


@<TRIPOS>ATOM
      1 C16        -21.9420     7.9240    19.6120 c3         1 9GR       0.071300
      2 C21        -25.4130     8.3770    12.1780 ca         1 9GR       0.471200
      3 C20        -25.3000     8.7870    13.4820 ca         1 9GR      -0.332300
      4 C19        -24.7920     8.4200    16.5880 ca         1 9GR      -0.097000
      5 C18        -23.8440     8.2880    17.5790 ca         1 9GR      -0.166000
      6 C17        -23.4570     9.3800    18.3660 ca         1 9GR       0.104600
      7 N2         -24.0780    13.0260    18.5640 nu         1 9GR      -0.740000
      8 C15        -22.2720    10.2380    20.2890 c          1 9GR       0.720700
      9 C14        -22.8270    11.5430    19.9900 cc         1 9GR      -0.091100
     10 C13        -23.5420    13.3430    21.3220 c3         1 9GR       0.135400
     11 C12        -23.6410    14.5750    20.4360 c3         1 9GR      -0.102400
     12 C11        -22.9190    16.5050    17.7820 cx         1 9GR      -0.124400
     13 C10        -23.2690    15.5230    16.7050 cx         1 9GR      -0.124400
     14 C9         -23.8490    15.3730    18.0800 cx         1 9GR      -0.155700
     15 O1         -21.5630    10.0450    21.2690 o          1 9GR      -0.602500
     16 C8         -23.3840    14.2500    18.9680 c3         1 9GR       0.250500
     17 C1         -27.5650     9.5440    13.3160 ca         1 9GR      -0.238300
     18 O          -22.4860    12.4900    20.9010 os         1 9GR      -0.292900
     19 C          -27.5370     9.0800    11.9990 ca         1 9GR       0.584300
     20 C7         -23.6150    11.7840    18.9000 cd         1 9GR       0.178800
     21 C2         -28.7260    10.1490    13.8560 cg         1 9GR       0.245800
     22 N          -29.6420    10.6530    14.3420 n1         1 9GR      -0.363800
     23 C6         -24.0190    10.6420    18.0990 ca         1 9GR      -0.108800
     24 C5         -24.9650    10.7570    17.0750 ca         1 9GR      -0.105000
     25 C4         -25.3600     9.6660    16.3270 ca         1 9GR       0.096600
     26 C3         -26.4030     9.3930    14.1100 ca         1 9GR       0.282600
     27 N3         -22.5560     9.2230    19.3950 n          1 9GR      -0.351000
     28 N4         -26.5160     8.5100    11.4290 nb         1 9GR      -0.696000
     29 H1         -21.2100     8.0090    20.4060 h1         1 9GR       0.056367
     30 H2         -22.6830     7.1790    19.9020 h1         1 9GR       0.056367
     31 H3         -21.4360     7.5880    18.7080 h1         1 9GR       0.056367
     32 H4         -24.5640     7.9150    11.6900 h4         1 9GR       0.028100
     33 H5         -24.3610     8.6550    13.9990 ha         1 9GR       0.157000
     34 H6         -25.1050     7.5430    16.0380 ha         1 9GR       0.148000
     35 H7         -23.4350     7.3050    17.7580 ha         1 9GR       0.147000
     36 H9         -27.1720    10.3930    15.6920 hn         1 9GR       0.456800
     37 H10        -23.3270    13.6270    22.3530 h1         1 9GR       0.057200
     38 H11        -24.4860    12.7900    21.3270 h1         1 9GR       0.057200
     39 H12        -22.9190    15.3340    20.7450 hc         1 9GR       0.055700
     40 H13        -24.6360    15.0120    20.5580 hc         1 9GR       0.055700
     41 H14        -21.9200    16.4620    18.2000 hc         1 9GR       0.075950
     42 H15        -23.3330    17.5030    17.7250 hc         1 9GR       0.075950
     43 H16        -23.9250    15.8450    15.9070 hc         1 9GR       0.075950
     44 H17        -22.5050    14.8190    16.3970 hc         1 9GR       0.075950
     45 H18        -24.8990    15.6270    18.1940 hc         1 9GR       0.088700
     46 H19        -22.3040    14.1240    18.8140 h1         1 9GR       0.055700
     47 H20        -25.4400    11.7050    16.8600 ha         1 9GR       0.139000
     48 H21        -24.4260    13.0950    17.6210 hn         1 9GR       0.412800
     49 N1         -26.3910     9.8320    15.3820 nu         1 9GR      -0.638000
     50 CL         -28.9620     9.2720    11.0430 cl         1 9GR      -0.143000
@<TRIPOS>BOND
     1     1    27 1   
     2     1    29 1   
     3     1    30 1   
     4     1    31 1   
     5     2     3 ar  
     6     2    28 ar  
     7     2    32 1   
     8     3    26 ar  
     9     3    33 1   
    10     4     5 ar  
    11     4    25 ar  
    12     4    34 1   
    13     5     6 ar  
    14     5    35 1   
    15     6    23 ar  
    16     6    27 1   
    17     7    16 1   
    18     7    20 1   
    19     7    48 1   
    20     8     9 1   
    21     8    15 2   
    22     8    27 1   
    23     9    18 1   
    24     9    20 2   
    25    10    11 1   
    26    10    18 1   
    27    10    37 1   
    28    10    38 1   
    29    11    16 1   
    30    11    39 1   
    31    11    40 1   
    32    12    13 1   
    33    12    14 1   
    34    12    41 1   
    35    12    42 1   
    36    13    14 1   
    37    13    43 1   
    38    13    44 1   
    39    14    16 1   
    40    14    45 1   
    41    16    46 1   
    42    17    19 ar  
    43    17    21 1   
    44    17    26 ar  
    45    19    28 ar  
    46    19    50 1   
    47    20    23 1   
    48    21    22 3   
    49    23    24 ar  
    50    24    25 ar  
    51    24    47 1   
    52    25    49 1   
    53    26    49 1   
    54    36    49 1   
@<TRIPOS>SUBSTRUCTURE
     1 9GR         1 TEMP              0 ****  ****    0 ROOT
