@<TRIPOS>MOLECULE
9GR
   50    54     1     0     0
SMALL
No Charge or Current Charge


@<TRIPOS>ATOM
      1 C16        -21.7350     7.9480    19.4910 c3         1 9GR       0.071300
      2 C21        -25.6010     8.1220    12.0410 ca         1 9GR       0.405900
      3 C20        -25.3650     8.7330    13.2730 ca         1 9GR      -0.249000
      4 C19        -24.6970     8.5400    16.4130 ca         1 9GR      -0.079000
      5 C18        -23.7920     8.3470    17.4680 ca         1 9GR      -0.148000
      6 C17        -23.4100     9.4220    18.3050 ca         1 9GR       0.104600
      7 N2         -24.1530    13.0620    18.7630 nu         1 9GR      -0.795200
      8 C15        -22.2960    10.1920    20.4140 c          1 9GR       0.578200
      9 C14        -22.9380    11.5150    20.1890 cc         1 9GR      -0.091100
     10 C13        -23.8310    13.4620    21.4880 c3         1 9GR       0.158600
     11 C12        -23.6880    14.6650    20.5370 c3         1 9GR      -0.102400
     12 C11        -22.7440    16.4960    17.8420 cx         1 9GR      -0.124400
     13 C10        -22.9830    15.4590    16.7680 cx         1 9GR      -0.124400
     14 C9         -23.7150    15.3630    18.0870 cx         1 9GR      -0.155700
     15 O1         -21.6070     9.9640    21.4030 o          1 9GR      -0.527000
     16 C8         -23.3930    14.2610    19.0890 c3         1 9GR       0.250500
     17 C1         -27.6670     9.4320    13.2990 ca         1 9GR      -0.173000
     18 O          -22.8170    12.4760    21.1960 os         1 9GR      -0.316100
     19 C          -27.8120     8.7860    12.0620 ca         1 9GR       0.519000
     20 C7         -23.7380    11.7790    19.0720 cd         1 9GR       0.178800
     21 C2         -28.7840    10.0950    13.8980 cg         1 9GR       0.335000
     22 N          -29.6860    10.6470    14.3920 n1         1 9GR      -0.453000
     23 C6         -24.0340    10.6780    18.1330 ca         1 9GR      -0.108800
     24 C5         -24.9450    10.8560    17.0600 ca         1 9GR      -0.087000
     25 C4         -25.2620     9.8040    16.1870 ca         1 9GR       0.235000
     26 C3         -26.4120     9.3900    13.9240 ca         1 9GR       0.421000
     27 N3         -22.5180     9.2120    19.4170 n          1 9GR      -0.284000
     28 N4         -26.8050     8.1400    11.4380 nb         1 9GR      -0.696000
     29 H1         -20.8750     8.0400    20.1650 h1         1 9GR       0.056367
     30 H2         -22.3800     7.1360    19.8500 h1         1 9GR       0.056367
     31 H3         -21.3460     7.6910    18.4980 h1         1 9GR       0.056367
     32 H4         -24.7990     7.6050    11.5140 h4         1 9GR       0.028100
     33 H5         -24.3680     8.7080    13.6980 ha         1 9GR       0.139000
     34 H6         -24.9750     7.6960    15.7890 ha         1 9GR       0.130000
     35 H7         -23.3960     7.3470    17.6160 ha         1 9GR       0.129000
     36 H9         -26.8240    10.7950    15.3320 hn         1 9GR       0.512000
     37 H10        -23.7270    13.8190    22.5200 h1         1 9GR       0.057200
     38 H11        -24.8320    13.0210    21.3930 h1         1 9GR       0.057200
     39 H12        -22.8890    15.3250    20.8940 hc         1 9GR       0.055700
     40 H13        -24.6190    15.2430    20.5800 hc         1 9GR       0.055700
     41 H14        -21.7890    16.4750    18.3620 hc         1 9GR       0.075950
     42 H15        -23.1550    17.4910    17.6880 hc         1 9GR       0.075950
     43 H16        -23.5540    15.7580    15.8920 hc         1 9GR       0.075950
     44 H17        -22.1890    14.7420    16.5690 hc         1 9GR       0.075950
     45 H18        -24.7710    15.6260    18.0820 hc         1 9GR       0.088700
     46 H19        -22.3200    14.0280    19.0150 h1         1 9GR       0.055700
     47 H20        -25.4320    11.8110    16.8970 ha         1 9GR       0.121000
     48 H21        -24.7240    13.1320    17.9260 hn         1 9GR       0.468000
     49 N1         -26.1820    10.0200    15.1530 nu         1 9GR      -0.970000
     50 Cl         -29.3490     8.7650    11.1960 cl         1 9GR      -0.143000
@<TRIPOS>BOND
     1     1    27 1   
     2     1    29 1   
     3     1    30 1   
     4     1    31 1   
     5     2     3 ar  
     6     2    28 ar  
     7     2    32 1   
     8     3    26 ar  
     9     3    33 1   
    10     4     5 ar  
    11     4    25 ar  
    12     4    34 1   
    13     5     6 ar  
    14     5    35 1   
    15     6    23 ar  
    16     6    27 1   
    17     7    16 1   
    18     7    20 1   
    19     7    48 1   
    20     8     9 1   
    21     8    15 2   
    22     8    27 1   
    23     9    18 1   
    24     9    20 2   
    25    10    11 1   
    26    10    18 1   
    27    10    37 1   
    28    10    38 1   
    29    11    16 1   
    30    11    39 1   
    31    11    40 1   
    32    12    13 1   
    33    12    14 1   
    34    12    41 1   
    35    12    42 1   
    36    13    14 1   
    37    13    43 1   
    38    13    44 1   
    39    14    16 1   
    40    14    45 1   
    41    16    46 1   
    42    17    19 ar  
    43    17    21 1   
    44    17    26 ar  
    45    19    28 ar  
    46    19    50 1   
    47    20    23 1   
    48    21    22 3   
    49    23    24 ar  
    50    24    25 ar  
    51    24    47 1   
    52    25    49 1   
    53    26    49 1   
    54    36    49 1   
@<TRIPOS>SUBSTRUCTURE
     1 9GR         1 TEMP              0 ****  ****    0 ROOT
