@<TRIPOS>MOLECULE
9GS
   72    77     1     0     0
SMALL
No Charge or Current Charge


@<TRIPOS>ATOM
      1 C6           6.0620     0.3440    -0.8120 ca         1 9GS      -0.270500
      2 C7           5.9700    -1.0070    -0.4170 ca         1 9GS      -0.011500
      3 C8           5.0750    -1.3830     0.5990 ca         1 9GS      -0.122000
      4 C15         -0.2920    -2.2470     0.5790 c5         1 9GS       0.101000
      5 C17         -1.7490    -2.7890    -1.5080 c5         1 9GS      -0.068400
      6 C20         -2.5850    -3.4770     0.6550 c5         1 9GS      -0.068400
      7 C21         -2.3710    -0.9760     0.1820 ca         1 9GS       0.298300
      8 C24         -3.1180     1.5960     0.7240 ca         1 9GS      -0.107000
      9 C26         -1.4620    -0.1310     0.7980 ca         1 9GS      -0.052000
     10 C28         -5.6200     1.9230    -1.3540 ca         1 9GS       0.363300
     11 C12          0.9300    -0.3050     1.6470 c          1 9GS       0.665100
     12 N11          1.9850    -1.1810     1.7770 ns         1 9GS      -0.524900
     13 C9           4.2680    -0.4190     1.2330 ca         1 9GS      -0.043300
     14 C38          4.3640     0.9290     0.8370 ca         1 9GS      -0.122000
     15 C39          5.2560     1.3120    -0.1780 ca         1 9GS      -0.011500
     16 S3           7.2190     0.8330    -2.1080 sy         1 9GS       1.042500
     17 O4           7.5090    -0.3370    -2.9480 o          1 9GS      -0.521000
     18 O5           6.7590     2.0980    -2.6970 o          1 9GS      -0.521000
     19 C2           8.7310     1.2040    -1.1850 c3         1 9GS      -0.293400
     20 C1           9.9040     1.6580    -2.0860 c3         1 9GS      -0.071100
     21 N14         -0.2410    -0.8290     1.0420 n          1 9GS      -0.230400
     22 C16         -1.7620    -2.3520    -0.0220 c5         1 9GS      -0.109300
     23 C19         -1.9520    -4.7530     0.0210 c5         1 9GS      -0.081400
     24 C18         -1.4170    -4.3080    -1.3880 c5         1 9GS      -0.081400
     25 C25         -1.8160     1.2000     1.0850 ca         1 9GS      -0.090000
     26 C23         -3.9960     0.6680     0.1050 cp         1 9GS       0.386500
     27 N22         -3.6180    -0.6000    -0.1740 nb         1 9GS      -0.628000
     28 C27         -5.3790     1.0490    -0.2720 cp         1 9GS      -0.258500
     29 C34         -6.5390     0.6020     0.4120 ca         1 9GS       0.208300
     30 C35         -6.2950    -0.2520     1.6310 cx         1 9GS      -0.208000
     31 C37         -6.1390    -1.7550     1.5310 cx         1 9GS      -0.102900
     32 C36         -7.3550    -1.1700     2.2060 cx         1 9GS      -0.102900
     33 N33         -7.7880     0.9710     0.0740 nb         1 9GS      -0.222000
     34 C32         -7.8880     1.7950    -0.9870 ca         1 9GS       0.168900
     35 N31         -6.8690     2.2920    -1.7160 nb         1 9GS      -0.275000
     36 C30         -4.6580     3.2820    -3.1610 c3         1 9GS       0.158900
     37 H1           6.5880    -1.7680    -0.8920 ha         1 9GS       0.137000
     38 H2           5.0100    -2.4280     0.8940 ha         1 9GS       0.119500
     39 H3           3.1890    -0.0170     3.0600 h1         1 9GS       0.067700
     40 H4           3.6950    -1.7010     2.8660 h1         1 9GS       0.067700
     41 H5           0.4770    -2.4410    -0.1800 h1         1 9GS       0.049200
     42 H6          -0.1400    -2.9400     1.4170 h1         1 9GS       0.049200
     43 H7          -2.7300    -2.6430    -1.9750 hc         1 9GS       0.059950
     44 H8          -1.0190    -2.2390    -2.1130 hc         1 9GS       0.059950
     45 H9          -2.5170    -3.4650     1.7490 hc         1 9GS       0.059950
     46 H10         -3.6480    -3.4040     0.3960 hc         1 9GS       0.059950
     47 H11         -3.4580     2.6080     0.9230 ha         1 9GS       0.130000
     48 H12          1.8490    -2.1210     1.4330 hn         1 9GS       0.319500
     49 H13          3.7430     1.6820     1.3170 ha         1 9GS       0.119500
     50 H14          5.3160     2.3610    -0.4670 ha         1 9GS       0.137000
     51 H15          8.4800     1.9890    -0.4640 h1         1 9GS       0.092200
     52 H16          9.0020     0.2930    -0.6380 h1         1 9GS       0.092200
     53 H17         10.1670     0.8780    -2.8120 hc         1 9GS       0.053700
     54 H18          9.6460     2.5700    -2.6380 hc         1 9GS       0.053700
     55 H19         10.7930     1.8680    -1.4790 hc         1 9GS       0.053700
     56 H20         -1.1320    -5.1350     0.6410 hc         1 9GS       0.041950
     57 H21         -2.6850    -5.5650    -0.0580 hc         1 9GS       0.041950
     58 H22         -1.8780    -4.8820    -2.2000 hc         1 9GS       0.041950
     59 H23         -0.3360    -4.4820    -1.4610 hc         1 9GS       0.041950
     60 H24         -1.1390     1.9010     1.5630 ha         1 9GS       0.156000
     61 H25         -5.6670     0.2560     2.3600 hc         1 9GS       0.095700
     62 H26         -6.2720    -2.2150     0.5550 hc         1 9GS       0.077700
     63 H27         -5.3850    -2.2270     2.1560 hc         1 9GS       0.077700
     64 H28         -7.4210    -1.2530     3.2880 hc         1 9GS       0.077700
     65 H29         -8.3060    -1.2590     1.6860 hc         1 9GS       0.077700
     66 H30         -8.8930     2.0980    -1.2780 h5         1 9GS       0.048100
     67 H31         -5.2430     2.8110    -3.9620 h1         1 9GS       0.050700
     68 H32         -5.1590     4.2130    -2.8640 h1         1 9GS       0.050700
     69 H33         -3.6730     3.5420    -3.5680 h1         1 9GS       0.050700
     70 C10          3.2960    -0.8310     2.3290 c3         1 9GS       0.156300
     71 O29         -4.5170     2.3920    -2.0350 os         1 9GS      -0.449300
     72 O13          1.0200     0.8500     2.0370 o          1 9GS      -0.614100
@<TRIPOS>BOND
     1     1     2 ar  
     2     1    15 ar  
     3     1    16 1   
     4     2     3 ar  
     5     2    37 1   
     6     3    13 ar  
     7     3    38 1   
     8     4    21 1   
     9     4    22 1   
    10     4    41 1   
    11     4    42 1   
    12     5    22 1   
    13     5    24 1   
    14     5    43 1   
    15     5    44 1   
    16     6    22 1   
    17     6    23 1   
    18     6    45 1   
    19     6    46 1   
    20     7     9 ar  
    21     7    22 1   
    22     7    27 ar  
    23     8    25 ar  
    24     8    26 ar  
    25     8    47 1   
    26     9    21 1   
    27     9    25 ar  
    28    10    28 ar  
    29    10    35 ar  
    30    10    71 1   
    31    11    12 1   
    32    11    21 1   
    33    11    72 2   
    34    12    48 1   
    35    12    70 1   
    36    13    14 ar  
    37    13    70 1   
    38    14    15 ar  
    39    14    49 1   
    40    15    50 1   
    41    16    17 2   
    42    16    18 2   
    43    16    19 1   
    44    19    20 1   
    45    19    51 1   
    46    19    52 1   
    47    20    53 1   
    48    20    54 1   
    49    20    55 1   
    50    23    24 1   
    51    23    56 1   
    52    23    57 1   
    53    24    58 1   
    54    24    59 1   
    55    25    60 1   
    56    26    27 ar  
    57    26    28 1   
    58    28    29 ar  
    59    29    30 1   
    60    29    33 ar  
    61    30    31 1   
    62    30    32 1   
    63    30    61 1   
    64    31    32 1   
    65    31    62 1   
    66    31    63 1   
    67    32    64 1   
    68    32    65 1   
    69    33    34 ar  
    70    34    35 ar  
    71    34    66 1   
    72    36    67 1   
    73    36    68 1   
    74    36    69 1   
    75    36    71 1   
    76    39    70 1   
    77    40    70 1   
@<TRIPOS>SUBSTRUCTURE
     1 9GS         1 TEMP              0 ****  ****    0 ROOT
