@<TRIPOS>MOLECULE
9GS
   72    77     1     0     0
SMALL
bcc


@<TRIPOS>ATOM
      1 C6           5.9870     1.1440    -0.3170 ca         1 9GS      -0.270500
      2 C7           4.8940     0.4320    -0.7870 ca         1 9GS      -0.029500
      3 C8           3.9990    -0.1150     0.1200 ca         1 9GS      -0.140000
      4 C15         -0.2530    -2.2880     0.9220 c5         1 9GS       0.101000
      5 C17         -1.3060    -2.8920    -1.3290 c5         1 9GS      -0.068400
      6 C20         -2.4050    -3.6370     0.6470 c5         1 9GS      -0.068400
      7 C21         -2.1880    -1.1120     0.2320 ca         1 9GS       0.363600
      8 C24         -2.9790     1.4360     0.4650 ca         1 9GS      -0.190300
      9 C26         -1.2860    -0.1900     0.7640 ca         1 9GS      -0.024700
     10 C28         -5.4210     1.5990    -1.5950 ca         1 9GS       0.691600
     11 C12          1.0030    -0.2290     1.6290 c          1 9GS       0.799100
     12 N11          2.0140    -1.0610     1.9790 ns         1 9GS      -0.591900
     13 C9           4.1860     0.0480     1.4880 ca         1 9GS      -0.043300
     14 C38          5.2920     0.7670     1.9380 ca         1 9GS      -0.140000
     15 C39          6.1950     1.3170     1.0460 ca         1 9GS      -0.029500
     16 S3           7.1360     1.8400    -1.4700 sy         1 9GS       1.073300
     17 O4           6.4420     2.0550    -2.7400 o          1 9GS      -0.591800
     18 O5           7.7930     2.9830    -0.8350 o          1 9GS      -0.591800
     19 C2           8.3580     0.5500    -1.7040 c3         1 9GS      -0.182600
     20 C1           9.4120     0.9910    -2.7040 c3         1 9GS      -0.071100
     21 N14         -0.1010    -0.8370     1.0890 n          1 9GS      -0.390000
     22 C16         -1.5650    -2.4710     0.1280 c5         1 9GS      -0.109300
     23 C19         -1.7010    -4.8700     0.0820 c5         1 9GS      -0.081400
     24 C18         -1.1170    -4.4190    -1.2760 c5         1 9GS      -0.081400
     25 C25         -1.6880     1.1310     0.8860 ca         1 9GS      -0.108000
     26 C23         -3.8060     0.4500    -0.0550 cp         1 9GS       0.451800
     27 N22         -3.4010    -0.8190    -0.1710 nb         1 9GS      -0.628000
     28 C27         -5.1850     0.7550    -0.4970 cp         1 9GS      -0.389100
     29 C34         -6.3170     0.2240     0.1090 ca         1 9GS       0.536600
     30 C35         -6.2380    -0.6580     1.2880 cx         1 9GS      -0.208000
     31 C37         -7.2520    -1.7630     1.4530 cx         1 9GS      -0.102900
     32 C36         -7.3190    -0.5730     2.3380 cx         1 9GS      -0.102900
     33 N33         -7.5470     0.5110    -0.3450 nb         1 9GS      -0.748000
     34 C32         -7.6370     1.3120    -1.3800 ca         1 9GS       0.694900
     35 N31         -6.6320     1.8790    -2.0340 nb         1 9GS      -0.801000
     36 C30         -4.5810     2.9600    -3.3340 c3         1 9GS       0.135700
     37 H1           4.7260     0.3040    -1.8480 ha         1 9GS       0.155000
     38 H2           3.1490    -0.6680    -0.2550 ha         1 9GS       0.137500
     39 H3           3.0360     0.2060     3.2750 h1         1 9GS       0.067700
     40 H4           3.7480    -1.3660     3.0200 h1         1 9GS       0.067700
     41 H5           0.6010    -2.7080     0.3880 h1         1 9GS       0.049200
     42 H6          -0.3140    -2.7700     1.9020 h1         1 9GS       0.049200
     43 H7          -2.1850    -2.6360    -1.9250 hc         1 9GS       0.059950
     44 H8          -0.4560    -2.3660    -1.7670 hc         1 9GS       0.059950
     45 H9          -2.4910    -3.6460     1.7360 hc         1 9GS       0.059950
     46 H10         -3.4160    -3.5450     0.2420 hc         1 9GS       0.059950
     47 H11         -3.3390     2.4520     0.5540 ha         1 9GS       0.148000
     48 H12          1.9560    -2.0520     1.8200 hn         1 9GS       0.319500
     49 H13          5.4470     0.9060     3.0010 ha         1 9GS       0.137500
     50 H14          7.0440     1.8770     1.4150 ha         1 9GS       0.155000
     51 H15          8.7870     0.3430    -0.7230 h1         1 9GS       0.092200
     52 H16          7.8230    -0.3380    -2.0420 h1         1 9GS       0.092200
     53 H17          8.9840     1.1660    -3.6890 hc         1 9GS       0.053700
     54 H18          9.9240     1.8950    -2.3770 hc         1 9GS       0.053700
     55 H19         10.1580     0.2040    -2.8000 hc         1 9GS       0.053700
     56 H20         -0.8960    -5.1820     0.7520 hc         1 9GS       0.041950
     57 H21         -2.3760    -5.7210    -0.0120 hc         1 9GS       0.041950
     58 H22         -1.6260    -4.8970    -2.1130 hc         1 9GS       0.041950
     59 H23         -0.0640    -4.6910    -1.3560 hc         1 9GS       0.041950
     60 H24         -1.0510     1.9010     1.2900 ha         1 9GS       0.174000
     61 H25         -5.2430    -0.8770     1.6470 hc         1 9GS       0.095700
     62 H26         -8.0030    -1.8650     0.6810 hc         1 9GS       0.077700
     63 H27         -6.8880    -2.6960     1.8620 hc         1 9GS       0.077700
     64 H28         -7.0060    -0.6700     3.3690 hc         1 9GS       0.077700
     65 H29         -8.1130     0.1420     2.1670 hc         1 9GS       0.077700
     66 H30         -8.6340     1.5370    -1.7430 h5         1 9GS       0.048100
     67 H31         -5.1010     2.4360    -4.1350 h1         1 9GS       0.050700
     68 H32         -5.1490     3.8510    -3.0650 h1         1 9GS       0.050700
     69 H33         -3.5910     3.2500    -3.6740 h1         1 9GS       0.050700
     70 C10          3.2440    -0.5440     2.5100 c3         1 9GS       0.156300
     71 O29         -4.3670     2.1160    -2.2060 os         1 9GS      -0.426100
     72 O13          1.0730     0.9820     1.7820 o          1 9GS      -0.614100
@<TRIPOS>BOND
     1     1     2 ar  
     2     1    15 ar  
     3     1    16 1   
     4     2     3 ar  
     5     2    37 1   
     6     3    13 ar  
     7     3    38 1   
     8     4    21 1   
     9     4    22 1   
    10     4    41 1   
    11     4    42 1   
    12     5    22 1   
    13     5    24 1   
    14     5    43 1   
    15     5    44 1   
    16     6    22 1   
    17     6    23 1   
    18     6    45 1   
    19     6    46 1   
    20     7     9 ar  
    21     7    22 1   
    22     7    27 ar  
    23     8    25 ar  
    24     8    26 ar  
    25     8    47 1   
    26     9    21 1   
    27     9    25 ar  
    28    10    28 ar  
    29    10    35 ar  
    30    10    71 1   
    31    11    12 1   
    32    11    21 1   
    33    11    72 2   
    34    12    48 1   
    35    12    70 1   
    36    13    14 ar  
    37    13    70 1   
    38    14    15 ar  
    39    14    49 1   
    40    15    50 1   
    41    16    17 2   
    42    16    18 2   
    43    16    19 1   
    44    19    20 1   
    45    19    51 1   
    46    19    52 1   
    47    20    53 1   
    48    20    54 1   
    49    20    55 1   
    50    23    24 1   
    51    23    56 1   
    52    23    57 1   
    53    24    58 1   
    54    24    59 1   
    55    25    60 1   
    56    26    27 ar  
    57    26    28 1   
    58    28    29 ar  
    59    29    30 1   
    60    29    33 ar  
    61    30    31 1   
    62    30    32 1   
    63    30    61 1   
    64    31    32 1   
    65    31    62 1   
    66    31    63 1   
    67    32    64 1   
    68    32    65 1   
    69    33    34 ar  
    70    34    35 ar  
    71    34    66 1   
    72    36    67 1   
    73    36    68 1   
    74    36    69 1   
    75    36    71 1   
    76    39    70 1   
    77    40    70 1   
@<TRIPOS>SUBSTRUCTURE
     1 9GS         1 TEMP              0 ****  ****    0 ROOT
