@<TRIPOS>MOLECULE
9GT
   31    32     1     0     0
SMALL
bcc


@<TRIPOS>ATOM
      1 C10          5.7900     2.3270     0.3660 c2         1 9GT      -0.221000
      2 C13         -0.3890     3.9190    -0.6820 cc         1 9GT      -0.222000
      3 C01          2.0040    -1.2570    -0.0700 ca         1 9GT      -0.117000
      4 C02          1.7020     0.0960    -0.0500 ca         1 9GT       0.057100
      5 C03          0.3590     0.4870    -0.0120 ca         1 9GT      -0.004200
      6 C04         -0.6460    -0.4710     0.0060 ca         1 9GT      -0.007100
      7 C05         -0.3510    -1.8370    -0.0140 ca         1 9GT       0.219100
      8 C06          1.0000    -2.2180    -0.0530 ca         1 9GT      -0.231600
      9 C07          1.3570    -3.6880    -0.0740 c          1 9GT       0.934200
     10 C08          3.9740     0.7530    -0.2600 c3         1 9GT       0.169600
     11 C09          4.7400     2.0270    -0.3870 c2         1 9GT      -0.151200
     12 C11         -0.0810     2.6270     1.1290 cd         1 9GT      -0.137800
     13 C12         -0.3590     3.9090     0.7380 cc         1 9GT      -0.222000
     14 C14         -0.1270     2.6430    -1.1030 cd         1 9GT      -0.137800
     15 I01         -2.6570     0.1100     0.0620 i          1 9GT      -0.187900
     16 N01          0.0530     1.8630     0.0040 na         1 9GT       0.039800
     17 O01         -1.3210    -2.7400     0.0020 oh         1 9GT      -0.571100
     18 O02          2.5440    -4.0140    -0.1100 o          1 9GT      -0.787800
     19 O03          0.3710    -4.4880    -0.0540 o          1 9GT      -0.787800
     20 O04          2.6100     1.0920    -0.0580 os         1 9GT      -0.318900
     21 H1           6.3420     3.2460     0.2230 ha         1 9GT       0.108000
     22 H2           6.1390     1.6640     1.1480 ha         1 9GT       0.108000
     23 H5           4.0780     0.1570    -1.1760 h1         1 9GT       0.041200
     24 H6           4.3600     0.1520     0.5710 h1         1 9GT       0.041200
     25 H7           4.4130     2.7100    -1.1640 ha         1 9GT       0.128000
     26 H8           0.0280     2.1940     2.1100 h4         1 9GT       0.161500
     27 H9          -0.5250     4.7470     1.3970 ha         1 9GT       0.132500
     28 H10         -0.0570     2.2230    -2.0930 h4         1 9GT       0.161500
     29 H11         -0.8030    -3.6350    -0.0170 ho         1 9GT       0.515000
     30 H3          -0.5810     4.7660    -1.3230 ha         1 9GT       0.132500
     31 H4           3.0290    -1.6010    -0.0950 ha         1 9GT       0.156000
@<TRIPOS>BOND
     1     1    11 2   
     2     1    21 1   
     3     1    22 1   
     4     2    13 1   
     5     2    14 2   
     6     2    30 1   
     7     3     4 ar  
     8     3     8 ar  
     9     3    31 1   
    10     4     5 ar  
    11     4    20 1   
    12     5     6 ar  
    13     5    16 1   
    14     6     7 ar  
    15     6    15 1   
    16     7     8 ar  
    17     7    17 1   
    18     8     9 1   
    19     9    18 1   
    20     9    19 1   
    21    10    11 1   
    22    10    20 1   
    23    10    23 1   
    24    10    24 1   
    25    11    25 1   
    26    12    13 2   
    27    12    16 1   
    28    12    26 1   
    29    13    27 1   
    30    14    16 1   
    31    14    28 1   
    32    17    29 1   
@<TRIPOS>SUBSTRUCTURE
     1 9GT         1 TEMP              0 ****  ****    0 ROOT
