@<TRIPOS>MOLECULE
9GT
   31    32     1     0     0
SMALL
No Charge or Current Charge


@<TRIPOS>ATOM
      1 C10          5.8540     2.4530     0.1900 c2         1 9GT      -0.321000
      2 C13          0.0060     3.8290    -0.7360 cc         1 9GT      -0.204000
      3 C01          1.8990    -1.2420    -0.0740 ca         1 9GT      -0.099000
      4 C02          1.5170     0.1180    -0.0650 ca         1 9GT       0.057100
      5 C03          0.1440     0.4590    -0.0370 ca         1 9GT      -0.004200
      6 C04         -0.8250    -0.5630    -0.0190 ca         1 9GT       0.130000
      7 C05         -0.4350    -1.9220    -0.0270 ca         1 9GT       0.219100
      8 C06          0.9330    -2.2780    -0.0550 ca         1 9GT      -0.231600
      9 C07          1.3780    -3.7290    -0.0650 c          1 9GT       0.723600
     10 C08          3.8710     0.8950    -0.1210 c3         1 9GT       0.192800
     11 C09          4.5680     2.2400    -0.1340 c2         1 9GT      -0.201200
     12 C11         -0.0710     2.5330     1.1330 cd         1 9GT      -0.170500
     13 C12          0.0300     3.8240     0.6810 cc         1 9GT      -0.204000
     14 C14         -0.1100     2.5410    -1.1930 cd         1 9GT      -0.170500
     15 I01         -2.9580    -0.0440     0.0240 i          1 9GT      -0.325000
     16 N01         -0.2740     1.7910    -0.0290 na         1 9GT       0.141200
     17 O01         -1.3910    -2.8980    -0.0090 oh         1 9GT      -0.610100
     18 O02          2.5730    -3.9760    -0.0890 o          1 9GT      -0.682500
     19 O03          0.5130    -4.5960    -0.0480 o          1 9GT      -0.682500
     20 O04          2.4560     1.1360    -0.0820 os         1 9GT      -0.342100
     21 H1           6.2930     3.4520     0.1580 ha         1 9GT       0.158000
     22 H2           6.5120     1.6380     0.4970 ha         1 9GT       0.158000
     23 H5           4.1440     0.3320    -1.0240 h1         1 9GT       0.041200
     24 H6           4.1900     0.3210     0.7590 h1         1 9GT       0.041200
     25 H7           3.9290     3.0710    -0.4400 ha         1 9GT       0.178000
     26 H8          -0.0240     2.1030     2.1260 h4         1 9GT       0.143500
     27 H9           0.1690     4.7080     1.2970 ha         1 9GT       0.114500
     28 H10         -0.0970     2.1170    -2.1900 h4         1 9GT       0.143500
     29 H11         -0.8750    -3.7560    -0.0200 ho         1 9GT       0.554000
     30 H3           0.1240     4.7160    -1.3510 ha         1 9GT       0.114500
     31 H4           2.9520    -1.5090    -0.0950 ha         1 9GT       0.138000
@<TRIPOS>BOND
     1     1    11 2   
     2     1    21 1   
     3     1    22 1   
     4     2    13 1   
     5     2    14 2   
     6     2    30 1   
     7     3     4 ar  
     8     3     8 ar  
     9     3    31 1   
    10     4     5 ar  
    11     4    20 1   
    12     5     6 ar  
    13     5    16 1   
    14     6     7 ar  
    15     6    15 1   
    16     7     8 ar  
    17     7    17 1   
    18     8     9 1   
    19     9    18 1   
    20     9    19 1   
    21    10    11 1   
    22    10    20 1   
    23    10    23 1   
    24    10    24 1   
    25    11    25 1   
    26    12    13 2   
    27    12    16 1   
    28    12    26 1   
    29    13    27 1   
    30    14    16 1   
    31    14    28 1   
    32    17    29 1   
@<TRIPOS>SUBSTRUCTURE
     1 9GT         1 TEMP              0 ****  ****    0 ROOT
