@<TRIPOS>MOLECULE
9GU
   37    39     1     0     0
SMALL
bcc


@<TRIPOS>ATOM
      1 CAG         -0.6390     1.7130     0.0040 c6         1 9GU       0.177800
      2 CAH         -1.9570     1.9420     0.7220 c6         1 9GU       0.093000
      3 NAL         -2.8570     0.8120     0.5580 n          1 9GU      -0.451800
      4 CAM         -3.9340     0.9410    -0.2220 c          1 9GU       0.706900
      5 OAN         -4.2120     1.8920    -0.9170 o          1 9GU      -0.566100
      6 CAI         -2.2530    -0.4300     1.0230 c6         1 9GU       0.093000
      7 CAJ         -0.9390    -0.6660     0.2990 c6         1 9GU       0.177800
      8 NAK         -0.0380     0.4670     0.4360 nh         1 9GU      -0.662000
      9 CAF          1.3200     0.2750     0.2600 ca         1 9GU       0.203600
     10 CAA          1.9520    -0.8870     0.7370 ca         1 9GU      -0.200000
     11 CAB          3.3130    -1.0670     0.6070 ca         1 9GU      -0.039000
     12 CAC          4.1090    -0.0970     0.0010 ca         1 9GU      -0.242300
     13 CAO          5.5690    -0.3300    -0.1730 c3         1 9GU       0.726200
     14 FAQ          5.8340    -1.1180    -1.2320 f          1 9GU      -0.237633
     15 FAR          6.2510     0.8050    -0.3670 f          1 9GU      -0.237633
     16 FAP          6.1170    -0.9390     0.8890 f          1 9GU      -0.237633
     17 CAD          3.4990     1.0520    -0.4820 ca         1 9GU      -0.039000
     18 CAE          2.1320     1.2350    -0.3620 ca         1 9GU      -0.200000
     19 H1          -0.7920     1.7380    -1.0830 h1         1 9GU       0.054950
     20 H2           0.0110     2.5480     0.2650 h1         1 9GU       0.054950
     21 H3          -1.7720     2.0660     1.7920 h1         1 9GU       0.079200
     22 H4          -2.4220     2.8530     0.3550 h1         1 9GU       0.079200
     23 H6          -2.0850    -0.3520     2.0990 h1         1 9GU       0.079200
     24 H7          -2.9040    -1.2800     0.8520 h1         1 9GU       0.079200
     25 H8          -0.4980    -1.5660     0.7190 h1         1 9GU       0.054950
     26 H9          -1.1440    -0.8670    -0.7620 h1         1 9GU       0.054950
     27 H10          1.3870    -1.6570     1.2420 ha         1 9GU       0.137500
     28 H11          3.7490    -1.9760     1.0020 ha         1 9GU       0.146000
     29 H12          4.0750     1.8250    -0.9730 ha         1 9GU       0.146000
     30 H13          1.7110     2.1390    -0.7780 ha         1 9GU       0.137500
     31 N1          -4.8570    -0.1550    -0.1910 n          1 9GU       0.060300
     32 N2          -5.2010    -0.7730     0.9400 nc         1 9GU      -0.190800
     33 N3          -6.1380    -1.5980     0.6620 nd         1 9GU      -0.345000
     34 C3          -6.4250    -1.5260    -0.6610 cd         1 9GU       0.250200
     35 C4          -5.6150    -0.5830    -1.2230 cc         1 9GU      -0.196600
     36 H5          -7.1810    -2.1380    -1.1230 h4         1 9GU       0.055100
     37 H14         -5.5130    -0.2140    -2.2280 h4         1 9GU       0.199000
@<TRIPOS>BOND
     1     1     2 1   
     2     1     8 1   
     3     1    19 1   
     4     1    20 1   
     5     2     3 1   
     6     2    21 1   
     7     2    22 1   
     8     3     4 1   
     9     3     6 1   
    10     4     5 2   
    11     4    31 1   
    12     6     7 1   
    13     6    23 1   
    14     6    24 1   
    15     7     8 1   
    16     7    25 1   
    17     7    26 1   
    18     8     9 1   
    19     9    10 ar  
    20     9    18 ar  
    21    10    11 ar  
    22    10    27 1   
    23    11    12 ar  
    24    11    28 1   
    25    12    13 1   
    26    12    17 ar  
    27    13    14 1   
    28    13    15 1   
    29    13    16 1   
    30    17    18 ar  
    31    17    29 1   
    32    18    30 1   
    33    31    32 1   
    34    31    35 1   
    35    32    33 2   
    36    33    34 1   
    37    34    35 2   
    38    34    36 1   
    39    35    37 1   
@<TRIPOS>SUBSTRUCTURE
     1 9GU         1 TEMP              0 ****  ****    0 ROOT
