@<TRIPOS>MOLECULE
9GU
   37    39     1     0     0
SMALL
No Charge or Current Charge


@<TRIPOS>ATOM
      1 CAG         -0.4710     1.7260    -0.5890 c6         1 9GU       0.177800
      2 CAH         -1.9320     1.8850    -0.0930 c6         1 9GU       0.093000
      3 NAL         -2.8350     0.6900    -0.2390 n          1 9GU      -0.384800
      4 CAM         -4.2360     0.8690    -0.0220 c          1 9GU       0.639900
      5 OAN         -4.6810     2.0130     0.0340 o          1 9GU      -0.566100
      6 CAI         -2.1580    -0.6540    -0.2200 c6         1 9GU       0.093000
      7 CAJ         -0.6750    -0.7000    -0.6810 c6         1 9GU       0.177800
      8 NAK          0.1110     0.4370    -0.1480 nh         1 9GU      -0.800400
      9 CAF          1.5020     0.2850     0.0580 ca         1 9GU       0.342000
     10 CAA          1.9650    -0.6930     0.9530 ca         1 9GU      -0.182000
     11 CAB          3.3400    -0.8700     1.1790 ca         1 9GU      -0.021000
     12 CAC          4.2810    -0.0600     0.5100 ca         1 9GU      -0.242300
     13 CAO          5.7830    -0.2550     0.7440 c3         1 9GU       0.362300
     14 FAQ          6.3010    -1.1530    -0.1230 f          1 9GU      -0.116333
     15 FAR          6.4810     0.8930     0.5890 f          1 9GU      -0.116333
     16 FAP          6.0550    -0.7070     1.9900 f          1 9GU      -0.116333
     17 CAD          3.8180     0.9160    -0.3970 ca         1 9GU      -0.021000
     18 CAE          2.4410     1.0870    -0.6170 ca         1 9GU      -0.182000
     19 H1          -0.4590     1.7870    -1.6870 h1         1 9GU       0.054950
     20 H2           0.1180     2.5730    -0.2060 h1         1 9GU       0.054950
     21 H3          -1.8970     2.1480     0.9740 h1         1 9GU       0.079200
     22 H4          -2.3700     2.7470    -0.6150 h1         1 9GU       0.079200
     23 H6          -2.2110    -1.0520     0.8030 h1         1 9GU       0.079200
     24 H7          -2.6980    -1.3480    -0.8770 h1         1 9GU       0.079200
     25 H8          -0.2410    -1.6620    -0.3730 h1         1 9GU       0.054950
     26 H9          -0.6500    -0.6770    -1.7810 h1         1 9GU       0.054950
     27 H10          1.2520    -1.3160     1.4830 ha         1 9GU       0.119500
     28 H11          3.6680    -1.6400     1.8760 ha         1 9GU       0.128000
     29 H12          4.5230     1.5440    -0.9410 ha         1 9GU       0.128000
     30 H13          2.1120     1.8380    -1.3280 ha         1 9GU       0.119500
     31 N1          -5.1280    -0.2420     0.1380 n          1 9GU       0.111000
     32 N2          -4.9170    -1.5930     0.1750 nc         1 9GU      -0.190800
     33 N3          -5.9970    -2.3080     0.3580 nd         1 9GU      -0.345000
     34 C3          -7.0430    -1.4010     0.4620 cd         1 9GU       0.184900
     35 C4          -6.4880    -0.1570     0.3280 cc         1 9GU      -0.164000
     36 H5          -8.0750    -1.6910     0.6210 h4         1 9GU       0.055100
     37 H14         -6.9370     0.8270     0.3480 h4         1 9GU       0.181000
@<TRIPOS>BOND
     1     1     2 1   
     2     1     8 1   
     3     1    19 1   
     4     1    20 1   
     5     2     3 1   
     6     2    21 1   
     7     2    22 1   
     8     3     4 1   
     9     3     6 1   
    10     4     5 2   
    11     4    31 1   
    12     6     7 1   
    13     6    23 1   
    14     6    24 1   
    15     7     8 1   
    16     7    25 1   
    17     7    26 1   
    18     8     9 1   
    19     9    10 ar  
    20     9    18 ar  
    21    10    11 ar  
    22    10    27 1   
    23    11    12 ar  
    24    11    28 1   
    25    12    13 1   
    26    12    17 ar  
    27    13    14 1   
    28    13    15 1   
    29    13    16 1   
    30    17    18 ar  
    31    17    29 1   
    32    18    30 1   
    33    31    32 1   
    34    31    35 1   
    35    32    33 2   
    36    33    34 1   
    37    34    35 2   
    38    34    36 1   
    39    35    37 1   
@<TRIPOS>SUBSTRUCTURE
     1 9GU         1 TEMP              0 ****  ****    0 ROOT
