@<TRIPOS>MOLECULE
9GV
   53    56     1     0     0
SMALL
No Charge or Current Charge


@<TRIPOS>ATOM
      1 C6           1.3120    27.2190    14.9160 ca         1 9GV      -0.319500
      2 C7           1.2310    28.5500    15.3730 ca         1 9GV      -0.011500
      3 C8           0.3130    29.4400    14.7900 ca         1 9GV      -0.121000
      4 C15         -5.1520    30.1350    15.5100 ca         1 9GV       0.369900
      5 C17         -7.3260    29.4940    16.0830 ca         1 9GV       0.622300
      6 C20         -7.3300    28.6050    14.9960 ca         1 9GV      -0.109200
      7 C21         -6.2540    28.4840    14.1750 ca         1 9GV      -0.142900
      8 C22         -6.6220    27.4900    13.1880 cc         1 9GV       0.369800
      9 C26        -10.6260    28.3350    14.6530 ca         1 9GV      -0.066500
     10 C28        -12.0770    27.1930    16.2360 ca         1 9GV       0.171000
     11 F29        -13.2970    27.0240    16.7910 f          1 9GV      -0.178000
     12 C27        -11.8960    28.1570    15.2320 ca         1 9GV      -0.142000
     13 C30        -11.0000    26.4030    16.6650 ca         1 9GV      -0.142000
     14 C31         -9.7290    26.5790    16.0870 ca         1 9GV      -0.066500
     15 C25         -9.5380    27.5460    15.0810 ca         1 9GV       0.006800
     16 N24         -8.2790    27.7280    14.5160 na         1 9GV       0.182800
     17 O18         -8.4330    29.5920    16.8950 os         1 9GV      -0.462300
     18 C19         -8.4580    30.4940    18.0170 c3         1 9GV       0.161900
     19 N16         -6.2310    30.2560    16.3330 nb         1 9GV      -0.755000
     20 N23         -7.8650    27.0210    13.3910 nd         1 9GV      -0.496100
     21 C14         -5.0960    29.2570    14.3990 ca         1 9GV      -0.167600
     22 C12         -3.8770    29.1590    13.5190 c          1 9GV       0.620700
     23 O13         -3.8310    28.4010    12.5610 o          1 9GV      -0.595100
     24 N11         -2.8080    29.9670    13.8400 ns         1 9GV      -0.508900
     25 C9          -0.5310    29.0130    13.7470 ca         1 9GV      -0.043300
     26 C32         -0.4490    27.6830    13.2950 ca         1 9GV      -0.121000
     27 C33          0.4660    26.7870    13.8730 ca         1 9GV      -0.011500
     28 S3           2.4820    26.0800    15.6750 sy         1 9GV       1.167600
     29 O4           3.6710    26.8260    16.0940 o          1 9GV      -0.541000
     30 O5           2.5590    24.8380    14.9020 o          1 9GV      -0.541000
     31 N2           1.6970    25.6800    17.0930 n7         1 9GV      -0.859300
     32 C1           0.2510    25.3860    17.0300 c3         1 9GV       0.177100
     33 H1           1.8730    28.8960    16.1820 ha         1 9GV       0.134500
     34 H2           0.2570    30.4640    15.1530 ha         1 9GV       0.118000
     35 H3          -1.6910    29.7180    12.0680 h1         1 9GV       0.068200
     36 H4          -1.1200    30.9970    13.1490 h1         1 9GV       0.068200
     37 H5          -4.3080    30.7730    15.7650 h4         1 9GV       0.018100
     38 H6          -6.0740    27.0840    12.3490 h4         1 9GV       0.075800
     39 H7         -10.4830    29.0840    13.8770 ha         1 9GV       0.135500
     40 H8         -12.7360    28.7650    14.9060 ha         1 9GV       0.139000
     41 H9         -11.1490    25.6580    17.4430 ha         1 9GV       0.139000
     42 H10         -8.8920    25.9680    16.4210 ha         1 9GV       0.135500
     43 H11         -9.4210    30.4280    18.5380 h1         1 9GV       0.054033
     44 H12         -7.6650    30.2480    18.7360 h1         1 9GV       0.054033
     45 H13         -8.3200    31.5330    17.6880 h1         1 9GV       0.054033
     46 H14         -2.9040    30.5720    14.6450 hn         1 9GV       0.321500
     47 H15         -1.1000    27.3400    12.4940 ha         1 9GV       0.118000
     48 H16          0.5110    25.7620    13.5090 ha         1 9GV       0.134500
     49 H17          2.1990    24.8310    17.3460 hn         1 9GV       0.476000
     50 H18         -0.1140    25.0380    18.0050 h1         1 9GV       0.054700
     51 H19         -0.3300    26.2790    16.7630 h1         1 9GV       0.054700
     52 H20          0.0330    24.6020    16.2910 h1         1 9GV       0.054700
     53 C10         -1.5290    29.9780    13.1230 c3         1 9GV       0.147300
@<TRIPOS>BOND
     1     1     2 ar  
     2     1    27 ar  
     3     1    28 1   
     4     2     3 ar  
     5     2    33 1   
     6     3    25 ar  
     7     3    34 1   
     8     4    19 ar  
     9     4    21 ar  
    10     4    37 1   
    11     5     6 ar  
    12     5    17 1   
    13     5    19 ar  
    14     6     7 ar  
    15     6    16 1   
    16     7     8 1   
    17     7    21 ar  
    18     8    20 2   
    19     8    38 1   
    20     9    12 ar  
    21     9    15 ar  
    22     9    39 1   
    23    10    11 1   
    24    10    12 ar  
    25    10    13 ar  
    26    12    40 1   
    27    13    14 ar  
    28    13    41 1   
    29    14    15 ar  
    30    14    42 1   
    31    15    16 1   
    32    16    20 1   
    33    17    18 1   
    34    18    43 1   
    35    18    44 1   
    36    18    45 1   
    37    21    22 1   
    38    22    23 2   
    39    22    24 1   
    40    24    46 1   
    41    24    53 1   
    42    25    26 ar  
    43    25    53 1   
    44    26    27 ar  
    45    26    47 1   
    46    27    48 1   
    47    28    29 2   
    48    28    30 2   
    49    28    31 1   
    50    31    32 1   
    51    31    49 1   
    52    32    50 1   
    53    32    51 1   
    54    32    52 1   
    55    35    53 1   
    56    36    53 1   
@<TRIPOS>SUBSTRUCTURE
     1 9GV         1 TEMP              0 ****  ****    0 ROOT
