@<TRIPOS>MOLECULE
9GV
   53    56     1     0     0
SMALL
abcg2


@<TRIPOS>ATOM
      1 C6           1.2920    27.5990    15.1830 ca         1 9GV      -0.319500
      2 C7           0.2250    28.2750    15.7620 ca         1 9GV      -0.011500
      3 C8          -0.7660    28.8100    14.9490 ca         1 9GV      -0.121000
      4 C15         -5.0860    30.0300    15.3030 ca         1 9GV       0.369900
      5 C17         -7.2530    29.6900    16.0330 ca         1 9GV       0.622300
      6 C20         -7.3870    28.6060    15.1320 ca         1 9GV      -0.109200
      7 C21         -6.2890    28.2280    14.3410 ca         1 9GV      -0.142900
      8 C22         -6.7430    27.0880    13.6270 cc         1 9GV       0.369800
      9 C26        -10.5450    28.7800    15.3230 ca         1 9GV      -0.066500
     10 C28        -12.2840    27.4960    16.3280 ca         1 9GV       0.171000
     11 F29        -13.5490    27.4170    16.8080 f          1 9GV      -0.178000
     12 C27        -11.8410    28.7040    15.8180 ca         1 9GV      -0.142000
     13 C30        -11.4890    26.3650    16.3650 ca         1 9GV      -0.142000
     14 C31        -10.1900    26.4540    15.8820 ca         1 9GV      -0.066500
     15 C25         -9.7230    27.6590    15.3680 ca         1 9GV       0.006800
     16 N24         -8.3980    27.7220    14.8570 na         1 9GV       0.182800
     17 O18         -8.2840    29.9870    16.8270 os         1 9GV      -0.462300
     18 C19         -8.1450    31.0980    17.7310 c3         1 9GV       0.161900
     19 N16         -6.1330    30.3700    16.0930 nb         1 9GV      -0.755000
     20 N23         -7.9920    26.8030    13.9450 nd         1 9GV      -0.496100
     21 C14         -5.0900    28.9770    14.4140 ca         1 9GV      -0.167600
     22 C12         -3.8930    28.5700    13.6300 c          1 9GV       0.620700
     23 O13         -3.7110    27.3930    13.3070 o          1 9GV      -0.595100
     24 N11         -3.0200    29.5470    13.3030 ns         1 9GV      -0.508900
     25 C9          -0.7040    28.6690    13.5660 ca         1 9GV      -0.043300
     26 C32          0.3750    27.9840    13.0010 ca         1 9GV      -0.121000
     27 C33          1.3720    27.4480    13.7990 ca         1 9GV      -0.011500
     28 S3           2.5210    26.8470    16.2140 sy         1 9GV       1.167600
     29 O4           2.4080    27.4320    17.5290 o          1 9GV      -0.541000
     30 O5           3.7910    26.8800    15.5260 o          1 9GV      -0.541000
     31 N2           2.1300    25.2590    16.3570 n7         1 9GV      -0.859300
     32 C1           0.8270    24.9090    16.9380 c3         1 9GV       0.177100
     33 H1           0.1710    28.3840    16.8360 ha         1 9GV       0.134500
     34 H2          -1.5980    29.3350    15.4000 ha         1 9GV       0.118000
     35 H3          -1.9260    28.5830    11.8160 h1         1 9GV       0.068200
     36 H4          -1.3880    30.2020    12.2390 h1         1 9GV       0.068200
     37 H5          -4.1970    30.6310    15.4450 h4         1 9GV       0.018100
     38 H6          -6.2100    26.4880    12.9110 h4         1 9GV       0.075800
     39 H7         -10.1780    29.7050    14.9050 ha         1 9GV       0.135500
     40 H8         -12.5000    29.5610    15.7970 ha         1 9GV       0.139000
     41 H9         -11.8760    25.4410    16.7720 ha         1 9GV       0.139000
     42 H10         -9.5370    25.5920    15.9080 ha         1 9GV       0.135500
     43 H11         -9.0930    31.1530    18.2570 h1         1 9GV       0.054033
     44 H12         -7.3280    30.9200    18.4300 h1         1 9GV       0.054033
     45 H13         -7.9590    32.0170    17.1780 h1         1 9GV       0.054033
     46 H14         -3.2350    30.5020    13.5330 hn         1 9GV       0.321500
     47 H15          0.4290    27.8640    11.9260 ha         1 9GV       0.118000
     48 H16          2.2030    26.9160    13.3550 ha         1 9GV       0.134500
     49 H17          2.3420    24.7640    15.4970 hn         1 9GV       0.476000
     50 H18          0.7970    23.8280    17.0520 h1         1 9GV       0.054700
     51 H19          0.7380    25.3670    17.9210 h1         1 9GV       0.054700
     52 H20         -0.0100    25.2280    16.3120 h1         1 9GV       0.054700
     53 C10         -1.7580    29.2620    12.6530 c3         1 9GV       0.147300
@<TRIPOS>BOND
     1     1     2 ar  
     2     1    27 ar  
     3     1    28 1   
     4     2     3 ar  
     5     2    33 1   
     6     3    25 ar  
     7     3    34 1   
     8     4    19 ar  
     9     4    21 ar  
    10     4    37 1   
    11     5     6 ar  
    12     5    17 1   
    13     5    19 ar  
    14     6     7 ar  
    15     6    16 1   
    16     7     8 1   
    17     7    21 ar  
    18     8    20 2   
    19     8    38 1   
    20     9    12 ar  
    21     9    15 ar  
    22     9    39 1   
    23    10    11 1   
    24    10    12 ar  
    25    10    13 ar  
    26    12    40 1   
    27    13    14 ar  
    28    13    41 1   
    29    14    15 ar  
    30    14    42 1   
    31    15    16 1   
    32    16    20 1   
    33    17    18 1   
    34    18    43 1   
    35    18    44 1   
    36    18    45 1   
    37    21    22 1   
    38    22    23 2   
    39    22    24 1   
    40    24    46 1   
    41    24    53 1   
    42    25    26 ar  
    43    25    53 1   
    44    26    27 ar  
    45    26    47 1   
    46    27    48 1   
    47    28    29 2   
    48    28    30 2   
    49    28    31 1   
    50    31    32 1   
    51    31    49 1   
    52    32    50 1   
    53    32    51 1   
    54    32    52 1   
    55    35    53 1   
    56    36    53 1   
@<TRIPOS>SUBSTRUCTURE
     1 9GV         1 TEMP              0 ****  ****    0 ROOT
