@<TRIPOS>MOLECULE
9GW
   33    34     1     0     0
SMALL
No Charge or Current Charge


@<TRIPOS>ATOM
      1 C10          6.1040     2.1480    -0.1540 c3         1 9GW      -0.088100
      2 C17          0.0380     3.8520     0.7020 cc         1 9GW      -0.204500
      3 C01          1.8730    -1.2250    -0.0540 ca         1 9GW      -0.101000
      4 N01         -0.2830     1.8200    -0.0050 na         1 9GW       0.142200
      5 O01         -1.4260    -2.8630     0.0250 oh         1 9GW      -0.609100
      6 C02          1.4980     0.1370    -0.0460 ca         1 9GW       0.062100
      7 O02          2.4420     1.1500    -0.0690 os         1 9GW      -0.348100
      8 C03          0.1270     0.4860    -0.0140 ca         1 9GW      -0.008200
      9 O03          0.4680    -4.5710    -0.0190 o          1 9GW      -0.683500
     10 C04         -0.8470    -0.5310     0.0100 ca         1 9GW       0.130000
     11 O04          2.5320    -3.9630    -0.0680 o          1 9GW      -0.683500
     12 C05         -0.4650    -1.8920     0.0020 ca         1 9GW       0.218100
     13 C06          0.9010    -2.2560    -0.0300 ca         1 9GW      -0.230600
     14 C07          1.3380    -3.7090    -0.0400 c          1 9GW       0.722600
     15 C08          3.8570     0.9000    -0.1010 c3         1 9GW       0.165600
     16 C09          4.5670     2.2670    -0.1190 c3         1 9GW      -0.081400
     17 C16         -0.0690     2.5620     1.1550 cd         1 9GW      -0.170500
     18 C18          0.0070     3.8550    -0.7150 cc         1 9GW      -0.204500
     19 C19         -0.1200     2.5680    -1.1700 cd         1 9GW      -0.170500
     20 I01         -2.9770    -0.0000     0.0600 i          1 9GW      -0.325000
     21 H1           6.4710     1.6090     0.7270 hc         1 9GW       0.029700
     22 H2           6.4300     1.6080    -1.0520 hc         1 9GW       0.029700
     23 H3           6.5640     3.1430    -0.1660 hc         1 9GW       0.029700
     24 H5           2.9240    -1.4980    -0.0790 ha         1 9GW       0.138000
     25 H6          -0.9140    -3.7240     0.0130 ho         1 9GW       0.554000
     26 H8           4.1730     0.3340     0.7850 h1         1 9GW       0.034200
     27 H9           4.1310     0.3330    -1.0010 h1         1 9GW       0.034200
     28 H10          4.2720     2.8370     0.7700 hc         1 9GW       0.050700
     29 H11          4.2320     2.8360    -0.9940 hc         1 9GW       0.050700
     30 H12         -0.0200     2.1320     2.1490 h4         1 9GW       0.144000
     31 H13          0.1290     4.7420    -1.3310 ha         1 9GW       0.114000
     32 H14         -0.1140     2.1430    -2.1670 h4         1 9GW       0.144000
     33 H4           0.1860     4.7350     1.3170 ha         1 9GW       0.114000
@<TRIPOS>BOND
     1     1    16 1   
     2     1    21 1   
     3     1    22 1   
     4     1    23 1   
     5     2    17 2   
     6     2    18 1   
     7     2    33 1   
     8     3     6 ar  
     9     3    13 ar  
    10     3    24 1   
    11     4     8 1   
    12     4    17 1   
    13     4    19 1   
    14     5    12 1   
    15     5    25 1   
    16     6     7 1   
    17     6     8 ar  
    18     7    15 1   
    19     8    10 ar  
    20     9    14 1   
    21    10    12 ar  
    22    10    20 1   
    23    11    14 1   
    24    12    13 ar  
    25    13    14 1   
    26    15    16 1   
    27    15    26 1   
    28    15    27 1   
    29    16    28 1   
    30    16    29 1   
    31    17    30 1   
    32    18    19 2   
    33    18    31 1   
    34    19    32 1   
@<TRIPOS>SUBSTRUCTURE
     1 9GW         1 TEMP              0 ****  ****    0 ROOT
