@<TRIPOS>MOLECULE
9GW
   33    34     1     0     0
SMALL
bcc


@<TRIPOS>ATOM
      1 C10          6.2180     1.8770    -0.1610 c3         1 9GW      -0.088100
      2 C17         -0.4660     3.9500     0.6880 cc         1 9GW      -0.222500
      3 C01          1.9830    -1.1870    -0.0560 ca         1 9GW      -0.119000
      4 N01         -0.0180     1.9010    -0.0170 na         1 9GW       0.040800
      5 O01         -1.3180    -2.7230     0.0380 oh         1 9GW      -0.570100
      6 C02          1.6610     0.1620    -0.0470 ca         1 9GW       0.062100
      7 O02          2.5520     1.1700    -0.0650 os         1 9GW      -0.324900
      8 C03          0.3110     0.5310    -0.0160 ca         1 9GW      -0.008200
      9 O03          0.4020    -4.4440    -0.0070 o          1 9GW      -0.788800
     10 C04         -0.6790    -0.4430     0.0130 ca         1 9GW      -0.007100
     11 O04          2.5670    -3.9350    -0.0680 o          1 9GW      -0.788800
     12 C05         -0.3630    -1.8050     0.0100 ca         1 9GW       0.218100
     13 C06          0.9950    -2.1640    -0.0270 ca         1 9GW      -0.230600
     14 C07          1.3750    -3.6270    -0.0350 c          1 9GW       0.933200
     15 C08          3.9320     0.8510    -0.1180 c3         1 9GW       0.142400
     16 C09          4.7210     2.1420    -0.0680 c3         1 9GW      -0.081400
     17 C16         -0.1530     2.6810     1.0960 cd         1 9GW      -0.137800
     18 C18         -0.5170     3.9350    -0.7320 cc         1 9GW      -0.222500
     19 C19         -0.2320     2.6580    -1.1340 cd         1 9GW      -0.137800
     20 I01         -2.6990     0.1060     0.0650 i          1 9GW      -0.187900
     21 H1           6.5600     1.2270     0.6460 hc         1 9GW       0.029700
     22 H2           6.4800     1.3980    -1.1050 hc         1 9GW       0.029700
     23 H3           6.7820     2.8060    -0.0960 hc         1 9GW       0.029700
     24 H5           3.0130    -1.5160    -0.0850 ha         1 9GW       0.156000
     25 H6          -0.7870    -3.6090     0.0260 ho         1 9GW       0.515000
     26 H8           4.2110     0.2090     0.7260 h1         1 9GW       0.034200
     27 H9           4.1590     0.3010    -1.0400 h1         1 9GW       0.034200
     28 H10          4.4940     2.6680     0.8620 hc         1 9GW       0.050700
     29 H11          4.4090     2.7940    -0.8880 hc         1 9GW       0.050700
     30 H12         -0.0180     2.2660     2.0820 h4         1 9GW       0.162000
     31 H13         -0.7380     4.7670    -1.3810 ha         1 9GW       0.132000
     32 H14         -0.1680     2.2220    -2.1180 h4         1 9GW       0.162000
     33 H4          -0.6410     4.7950     1.3350 ha         1 9GW       0.132000
@<TRIPOS>BOND
     1     1    16 1   
     2     1    21 1   
     3     1    22 1   
     4     1    23 1   
     5     2    17 2   
     6     2    18 1   
     7     2    33 1   
     8     3     6 ar  
     9     3    13 ar  
    10     3    24 1   
    11     4     8 1   
    12     4    17 1   
    13     4    19 1   
    14     5    12 1   
    15     5    25 1   
    16     6     7 1   
    17     6     8 ar  
    18     7    15 1   
    19     8    10 ar  
    20     9    14 1   
    21    10    12 ar  
    22    10    20 1   
    23    11    14 1   
    24    12    13 ar  
    25    13    14 1   
    26    15    16 1   
    27    15    26 1   
    28    15    27 1   
    29    16    28 1   
    30    16    29 1   
    31    17    30 1   
    32    18    19 2   
    33    18    31 1   
    34    19    32 1   
@<TRIPOS>SUBSTRUCTURE
     1 9GW         1 TEMP              0 ****  ****    0 ROOT
