@<TRIPOS>MOLECULE
9GX
   49    52     1     0     0
SMALL
bcc


@<TRIPOS>ATOM
      1 C11          3.3260    -0.6110     0.2410 ca         1 9GX       0.087600
      2 C12          4.5400     0.1030     0.1290 ca         1 9GX       0.135100
      3 C14          5.7100     1.9240    -0.8450 c3         1 9GX       0.121700
      4 C15          5.6540    -0.3030     0.8520 ca         1 9GX      -0.207000
      5 C01         -5.4690     0.3600     0.8700 c6         1 9GX      -0.001200
      6 C02         -4.0950     0.4100     0.2650 cc         1 9GX      -0.298400
      7 C03         -3.3460     1.6260     0.3740 c          1 9GX       0.717700
      8 C06         -1.5830     0.4900    -0.8430 cc         1 9GX       0.726800
      9 C08          0.2800    -0.6430    -1.9040 c6         1 9GX       0.209800
     10 C09          1.2290    -1.1890    -0.8490 c6         1 9GX       0.158800
     11 C16          5.5930    -1.4300     1.6680 ca         1 9GX      -0.102000
     12 C17          4.4190    -2.1510     1.7670 ca         1 9GX      -0.148000
     13 C18          3.2940    -1.7310     1.0620 ca         1 9GX      -0.137000
     14 C19          1.5940     1.0510    -0.0360 c6         1 9GX       0.158800
     15 C20          0.6330     1.5800    -1.0880 c6         1 9GX       0.209800
     16 C22         -3.5080    -0.6480    -0.3730 cd         1 9GX       0.230400
     17 C23         -4.2230    -1.9600    -0.5190 c6         1 9GX      -0.034200
     18 C24         -5.4050    -2.1040     0.4280 c6         1 9GX      -0.073400
     19 C25         -6.2650    -0.8500     0.3950 c6         1 9GX      -0.076400
     20 N05         -2.0890     1.5840    -0.2180 ns         1 9GX      -0.501400
     21 N07         -0.3610     0.5720    -1.4210 nh         1 9GX      -0.741600
     22 N10          2.2160    -0.1800    -0.5080 nh         1 9GX      -0.629000
     23 N21         -2.2690    -0.6180    -0.9190 nd         1 9GX      -0.731300
     24 O13          4.5320     1.1570    -0.7090 os         1 9GX      -0.308900
     25 H1           6.5410     1.3330    -1.2400 h1         1 9GX       0.040367
     26 H2           5.4810     2.7200    -1.5490 h1         1 9GX       0.040367
     27 H3           6.0180     2.3720     0.1040 h1         1 9GX       0.040367
     28 H4           6.5900     0.2350     0.7760 ha         1 9GX       0.136000
     29 H5          -5.3880     0.3380     1.9620 hc         1 9GX       0.052700
     30 H6          -6.0100     1.2800     0.6340 hc         1 9GX       0.052700
     31 H7           0.8360    -0.3910    -2.8100 h1         1 9GX       0.072700
     32 H8          -0.4720    -1.3830    -2.1560 h1         1 9GX       0.072700
     33 H9           0.6350    -1.5180     0.0180 h1         1 9GX       0.049450
     34 H10          1.7400    -2.0680    -1.2470 h1         1 9GX       0.049450
     35 H11          6.4750    -1.7350     2.2160 ha         1 9GX       0.132000
     36 H12          4.3630    -3.0310     2.3950 ha         1 9GX       0.135000
     37 H13          2.3750    -2.2940     1.1590 ha         1 9GX       0.134000
     38 H14          2.3540     1.8070     0.1510 h1         1 9GX       0.049450
     39 H15          1.0500     0.8890     0.9070 h1         1 9GX       0.049450
     40 H16          0.1890     2.5140    -0.7520 h1         1 9GX       0.072700
     41 H17          1.1840     1.8180    -2.0000 h1         1 9GX       0.072700
     42 H18         -4.5630    -2.0440    -1.5580 hc         1 9GX       0.061700
     43 H19         -3.5000    -2.7670    -0.3780 hc         1 9GX       0.061700
     44 H20         -5.9900    -2.9850     0.1560 hc         1 9GX       0.043200
     45 H21         -5.0420    -2.2730     1.4470 hc         1 9GX       0.043200
     46 H22         -7.1520    -0.9730     1.0190 hc         1 9GX       0.041700
     47 H23         -6.6200    -0.6820    -0.6270 hc         1 9GX       0.041700
     48 H24         -1.5630     2.4450    -0.1710 hn         1 9GX       0.325500
     49 O04         -3.7140     2.6570     0.9250 o          1 9GX      -0.637500
@<TRIPOS>BOND
     1     1     2 ar  
     2     1    13 ar  
     3     1    22 1   
     4     2     4 ar  
     5     2    24 1   
     6     3    24 1   
     7     3    25 1   
     8     3    26 1   
     9     3    27 1   
    10     4    11 ar  
    11     4    28 1   
    12     5     6 1   
    13     5    19 1   
    14     5    29 1   
    15     5    30 1   
    16     6     7 1   
    17     6    16 2   
    18     7    20 1   
    19     7    49 2   
    20     8    20 1   
    21     8    21 1   
    22     8    23 2   
    23     9    10 1   
    24     9    21 1   
    25     9    31 1   
    26     9    32 1   
    27    10    22 1   
    28    10    33 1   
    29    10    34 1   
    30    11    12 ar  
    31    11    35 1   
    32    12    13 ar  
    33    12    36 1   
    34    13    37 1   
    35    14    15 1   
    36    14    22 1   
    37    14    38 1   
    38    14    39 1   
    39    15    21 1   
    40    15    40 1   
    41    15    41 1   
    42    16    17 1   
    43    16    23 1   
    44    17    18 1   
    45    17    42 1   
    46    17    43 1   
    47    18    19 1   
    48    18    44 1   
    49    18    45 1   
    50    19    46 1   
    51    19    47 1   
    52    20    48 1   
@<TRIPOS>SUBSTRUCTURE
     1 9GX         1 TEMP              0 ****  ****    0 ROOT
