@<TRIPOS>MOLECULE
9GX
   49    52     1     0     0
SMALL
No Charge or Current Charge


@<TRIPOS>ATOM
      1 C11          3.4020    -0.7350     0.2190 ca         1 9GX       0.226000
      2 C12          4.5910     0.0540     0.2050 ca         1 9GX       0.135100
      3 C14          5.7290     2.1550    -0.4670 c3         1 9GX       0.144900
      4 C15          5.7750    -0.4530     0.7940 ca         1 9GX      -0.189000
      5 C01         -5.6100     0.5030     0.5140 c6         1 9GX      -0.001200
      6 C02         -4.1870     0.4770    -0.0340 cc         1 9GX      -0.298400
      7 C03         -3.5980     1.7870    -0.3220 c          1 9GX       0.575200
      8 C06         -1.6760     0.5530    -0.9530 cc         1 9GX       0.726800
      9 C08          0.3180    -0.4560    -2.0740 c6         1 9GX       0.209800
     10 C09          1.2440    -1.1990    -1.0580 c6         1 9GX       0.158800
     11 C16          5.7850    -1.7240     1.3900 ca         1 9GX      -0.084000
     12 C17          4.6190    -2.5010     1.4040 ca         1 9GX      -0.130000
     13 C18          3.4380    -2.0110     0.8230 ca         1 9GX      -0.119000
     14 C19          1.4950     0.9290     0.2270 c6         1 9GX       0.158800
     15 C20          0.5650     1.6490    -0.8020 c6         1 9GX       0.209800
     16 C22         -3.4810    -0.7050    -0.2280 cd         1 9GX       0.230400
     17 C23         -4.0930    -2.0650     0.0600 c6         1 9GX      -0.034200
     18 C24         -5.3430    -1.9810     0.9640 c6         1 9GX      -0.073400
     19 C25         -6.2930    -0.8820     0.4520 c6         1 9GX      -0.076400
     20 N05         -2.3450     1.7050    -0.7800 ns         1 9GX      -0.434400
     21 N07         -0.4020     0.6960    -1.4410 nh         1 9GX      -0.741600
     22 N10          2.1850    -0.2670    -0.3560 nh         1 9GX      -0.767400
     23 N21         -2.1760    -0.6490    -0.7220 nd         1 9GX      -0.731300
     24 O13          4.5720     1.3020    -0.4060 os         1 9GX      -0.332100
     25 H1           6.5470     1.6650    -1.0100 h1         1 9GX       0.040367
     26 H2           5.4840     3.0870    -0.9910 h1         1 9GX       0.040367
     27 H3           6.0770     2.4120     0.5410 h1         1 9GX       0.040367
     28 H4           6.6960     0.1220     0.7980 ha         1 9GX       0.118000
     29 H5          -5.5960     0.8470     1.5580 hc         1 9GX       0.052700
     30 H6          -6.2340     1.2250    -0.0310 hc         1 9GX       0.052700
     31 H7           0.9410    -0.0880    -2.9020 h1         1 9GX       0.072700
     32 H8          -0.3850    -1.1770    -2.5170 h1         1 9GX       0.072700
     33 H9           0.6120    -1.7160    -0.3210 h1         1 9GX       0.049450
     34 H10          1.8090    -1.9690    -1.6030 h1         1 9GX       0.049450
     35 H11          6.6980    -2.1070     1.8420 ha         1 9GX       0.114000
     36 H12          4.6280    -3.4850     1.8680 ha         1 9GX       0.117000
     37 H13          2.5430    -2.6250     0.8550 ha         1 9GX       0.116000
     38 H14          2.2280     1.6580     0.6010 h1         1 9GX       0.049450
     39 H15          0.8870     0.6160     1.0880 h1         1 9GX       0.049450
     40 H16          0.0520     2.4730    -0.2870 h1         1 9GX       0.072700
     41 H17          1.1960     2.1080    -1.5770 h1         1 9GX       0.072700
     42 H18         -4.3670    -2.5440    -0.8890 hc         1 9GX       0.061700
     43 H19         -3.3510    -2.7260     0.5290 hc         1 9GX       0.061700
     44 H20         -5.8580    -2.9510     0.9820 hc         1 9GX       0.043200
     45 H21         -5.0440    -1.7620     1.9980 hc         1 9GX       0.043200
     46 H22         -7.2150    -0.8700     1.0490 hc         1 9GX       0.041700
     47 H23         -6.5920    -1.1030    -0.5820 hc         1 9GX       0.041700
     48 H24         -1.8940     2.5650    -1.0340 hn         1 9GX       0.325500
     49 O04         -4.1530     2.8650    -0.1750 o          1 9GX      -0.562000
@<TRIPOS>BOND
     1     1     2 ar  
     2     1    13 ar  
     3     1    22 1   
     4     2     4 ar  
     5     2    24 1   
     6     3    24 1   
     7     3    25 1   
     8     3    26 1   
     9     3    27 1   
    10     4    11 ar  
    11     4    28 1   
    12     5     6 1   
    13     5    19 1   
    14     5    29 1   
    15     5    30 1   
    16     6     7 1   
    17     6    16 2   
    18     7    20 1   
    19     7    49 2   
    20     8    20 1   
    21     8    21 1   
    22     8    23 2   
    23     9    10 1   
    24     9    21 1   
    25     9    31 1   
    26     9    32 1   
    27    10    22 1   
    28    10    33 1   
    29    10    34 1   
    30    11    12 ar  
    31    11    35 1   
    32    12    13 ar  
    33    12    36 1   
    34    13    37 1   
    35    14    15 1   
    36    14    22 1   
    37    14    38 1   
    38    14    39 1   
    39    15    21 1   
    40    15    40 1   
    41    15    41 1   
    42    16    17 1   
    43    16    23 1   
    44    17    18 1   
    45    17    42 1   
    46    17    43 1   
    47    18    19 1   
    48    18    44 1   
    49    18    45 1   
    50    19    46 1   
    51    19    47 1   
    52    20    48 1   
@<TRIPOS>SUBSTRUCTURE
     1 9GX         1 TEMP              0 ****  ****    0 ROOT
