@<TRIPOS>MOLECULE
9GY
   54    57     1     0     0
SMALL
abcg2


@<TRIPOS>ATOM
      1 CBD          1.7740    20.0650    -5.5090 c3         1 9GY       0.096300
      2 NBC          3.1830    20.3950    -5.3920 ns         1 9GY      -0.505900
      3 CBA          4.1500    19.4900    -5.6260 c          1 9GY       0.604700
      4 OBB          3.8920    18.3310    -5.9650 o          1 9GY      -0.606100
      5 CAC          5.5650    19.9560    -5.4590 ca         1 9GY      -0.146600
      6 CAD          6.5510    19.3220    -6.2120 ca         1 9GY      -0.050000
      7 CAB          5.9250    20.9600    -4.5590 ca         1 9GY      -0.085000
      8 CAA          7.2610    21.3220    -4.4300 ca         1 9GY      -0.117000
      9 CAF          8.2360    20.6970    -5.1950 ca         1 9GY      -0.080000
     10 CAE          7.8950    19.6850    -6.1000 cp         1 9GY      -0.041000
     11 CAG          8.9260    19.0060    -6.9160 cp         1 9GY      -0.030000
     12 CAH         10.2110    18.7990    -6.4080 ca         1 9GY      -0.098000
     13 CAI         11.1630    18.1290    -7.1590 ca         1 9GY      -0.049000
     14 CAL          8.6500    18.5820    -8.2210 ca         1 9GY      -0.093000
     15 CAK          9.6150    17.9480    -8.9890 ca         1 9GY      -0.116000
     16 CAJ         10.8700    17.6820    -8.4520 ca         1 9GY      -0.040000
     17 NAP         11.8960    16.9940    -9.1400 n          1 9GY      -0.235400
     18 CAQ         11.7330    15.7820    -9.7600 c          1 9GY       0.608100
     19 OAR         12.6660    15.2640   -10.3720 o          1 9GY      -0.596100
     20 CAS         10.4050    15.0740    -9.6490 c3         1 9GY      -0.170100
     21 CAO         13.2730    17.5420    -9.0600 c6         1 9GY       0.100700
     22 CBE         13.6270    18.3530   -10.3000 c3         1 9GY      -0.103100
     23 CAN         13.4400    18.3890    -7.7870 c6         1 9GY       0.085000
     24 NAM         12.5050    17.9560    -6.7490 n          1 9GY      -0.226400
     25 CAT         12.9450    17.6010    -5.5060 c          1 9GY       0.554600
     26 OAU         14.1010    17.8090    -5.1340 o          1 9GY      -0.577100
     27 CAV         12.0040    16.9200    -4.6060 cc         1 9GY       0.053500
     28 OAW         10.9650    16.1860    -5.1150 os         1 9GY      -0.230000
     29 CAX         10.2900    15.6610    -4.0610 cc         1 9GY       0.155900
     30 CAY         10.8710    16.0390    -2.8900 cd         1 9GY      -0.201000
     31 CAZ         11.9890    16.8490    -3.2440 cd         1 9GY      -0.102000
     32 H1           1.1920    20.9430    -5.2380 h1         1 9GY       0.042367
     33 H2           1.5220    19.7690    -6.5300 h1         1 9GY       0.042367
     34 H3           1.5150    19.2440    -4.8400 h1         1 9GY       0.042367
     35 H4           3.4340    21.3530    -5.2140 hn         1 9GY       0.316500
     36 H5           6.2570    18.5250    -6.8800 ha         1 9GY       0.137000
     37 H6           5.1810    21.4420    -3.9390 ha         1 9GY       0.113000
     38 H7           7.5430    22.0970    -3.7290 ha         1 9GY       0.119000
     39 H8           9.2680    21.0080    -5.0980 ha         1 9GY       0.119000
     40 H9          10.4670    19.1370    -5.4130 ha         1 9GY       0.127000
     41 H10          7.6810    18.7820    -8.6560 ha         1 9GY       0.123000
     42 H11          9.3930    17.6570   -10.0060 ha         1 9GY       0.126000
     43 H12         10.5990    14.0070    -9.7400 hc         1 9GY       0.065700
     44 H13          9.8900    15.2790    -8.7120 hc         1 9GY       0.065700
     45 H14          9.7500    15.3700   -10.4700 hc         1 9GY       0.065700
     46 H15         13.9270    16.6750    -8.9910 h1         1 9GY       0.085700
     47 H16         14.6390    18.7530   -10.2090 hc         1 9GY       0.048700
     48 H17         13.5780    17.7310   -11.1920 hc         1 9GY       0.048700
     49 H18         12.9360    19.1920   -10.4110 hc         1 9GY       0.048700
     50 H19         14.4540    18.2970    -7.4120 h1         1 9GY       0.071200
     51 H20         13.2460    19.4430    -8.0040 h1         1 9GY       0.071200
     52 H21          9.4430    15.0430    -4.3030 h4         1 9GY       0.058100
     53 H22         10.5450    15.7720    -1.8990 ha         1 9GY       0.148000
     54 H23         12.6900    17.3270    -2.5800 ha         1 9GY       0.155000
@<TRIPOS>BOND
     1     1     2 1   
     2     1    32 1   
     3     1    33 1   
     4     1    34 1   
     5     2     3 1   
     6     2    35 1   
     7     3     4 2   
     8     3     5 1   
     9     5     6 ar  
    10     5     7 ar  
    11     6    10 ar  
    12     6    36 1   
    13     7     8 ar  
    14     7    37 1   
    15     8     9 ar  
    16     8    38 1   
    17     9    10 ar  
    18     9    39 1   
    19    10    11 1   
    20    11    12 ar  
    21    11    14 ar  
    22    12    13 ar  
    23    12    40 1   
    24    13    16 ar  
    25    13    24 1   
    26    14    15 ar  
    27    14    41 1   
    28    15    16 ar  
    29    15    42 1   
    30    16    17 1   
    31    17    18 1   
    32    17    21 1   
    33    18    19 2   
    34    18    20 1   
    35    20    43 1   
    36    20    44 1   
    37    20    45 1   
    38    21    22 1   
    39    21    23 1   
    40    21    46 1   
    41    22    47 1   
    42    22    48 1   
    43    22    49 1   
    44    23    24 1   
    45    23    50 1   
    46    23    51 1   
    47    24    25 1   
    48    25    26 2   
    49    25    27 1   
    50    27    28 1   
    51    27    31 2   
    52    28    29 1   
    53    29    30 2   
    54    29    52 1   
    55    30    31 1   
    56    30    53 1   
    57    31    54 1   
@<TRIPOS>SUBSTRUCTURE
     1 9GY         1 TEMP              0 ****  ****    0 ROOT
