@<TRIPOS>MOLECULE
9GY
   54    57     1     0     0
SMALL
No Charge or Current Charge


@<TRIPOS>ATOM
      1 CBD          1.7890    19.7750    -4.9270 c3         1 9GY       0.096300
      2 NBC          3.2090    20.1300    -4.9900 ns         1 9GY      -0.505900
      3 CBA          4.1490    19.4460    -5.7290 c          1 9GY       0.604700
      4 OBB          3.8360    18.4690    -6.3970 o          1 9GY      -0.606100
      5 CAC          5.5730    19.9630    -5.6700 ca         1 9GY      -0.146600
      6 CAD          6.5830    19.2970    -6.4040 ca         1 9GY      -0.050000
      7 CAB          5.9350    21.0940    -4.9000 ca         1 9GY      -0.085000
      8 CAA          7.2660    21.5370    -4.8700 ca         1 9GY      -0.117000
      9 CAF          8.2550    20.8640    -5.6040 ca         1 9GY      -0.080000
     10 CAE          7.9320    19.7300    -6.3870 cp         1 9GY      -0.041000
     11 CAG          8.9860    19.0080    -7.1680 cp         1 9GY      -0.030000
     12 CAH         10.2930    18.8470    -6.6500 ca         1 9GY      -0.098000
     13 CAI         11.3020    18.1680    -7.3680 ca         1 9GY      -0.049000
     14 CAL          8.7030    18.4420    -8.4320 ca         1 9GY      -0.093000
     15 CAK          9.6920    17.7600    -9.1560 ca         1 9GY      -0.116000
     16 CAJ         11.0020    17.6510    -8.6490 ca         1 9GY      -0.040000
     17 NAP         12.0290    16.8950    -9.3160 n          1 9GY      -0.235400
     18 CAQ         11.8470    15.6720   -10.0170 c          1 9GY       0.608100
     19 OAR         12.7280    15.2150   -10.7370 o          1 9GY      -0.596100
     20 CAS         10.5690    14.8560    -9.7930 c3         1 9GY      -0.170100
     21 CAO         13.3820    17.4910    -9.1760 c6         1 9GY       0.100700
     22 CBE         13.4910    18.8570    -9.9110 c3         1 9GY      -0.103100
     23 CAN         13.7440    17.6100    -7.6690 c6         1 9GY       0.085000
     24 NAM         12.5790    17.8320    -6.7590 n          1 9GY      -0.226400
     25 CAT         12.8240    17.7160    -5.3620 c          1 9GY       0.554600
     26 OAU         13.9310    17.9820    -4.9000 o          1 9GY      -0.577100
     27 CAV         11.7210    17.1830    -4.4990 cc         1 9GY       0.053500
     28 OAW         10.5530    16.6010    -4.9600 os         1 9GY      -0.230000
     29 CAX          9.8460    16.1860    -3.8540 cc         1 9GY       0.155900
     30 CAY         10.5640    16.4670    -2.7240 cd         1 9GY      -0.201000
     31 CAZ         11.7630    17.0890    -3.1320 cd         1 9GY      -0.102000
     32 H1           1.2640    20.4800    -4.2690 h1         1 9GY       0.042367
     33 H2           1.3500    19.8230    -5.9320 h1         1 9GY       0.042367
     34 H3           1.6790    18.7580    -4.5280 h1         1 9GY       0.042367
     35 H4           3.5320    20.9280    -4.4600 hn         1 9GY       0.316500
     36 H5           6.3220    18.4180    -6.9890 ha         1 9GY       0.137000
     37 H6           5.1990    21.6420    -4.3180 ha         1 9GY       0.113000
     38 H7           7.5340    22.4090    -4.2770 ha         1 9GY       0.119000
     39 H8           9.2770    21.2340    -5.5750 ha         1 9GY       0.119000
     40 H9          10.5160    19.2480    -5.6660 ha         1 9GY       0.127000
     41 H10          7.7120    18.5470    -8.8660 ha         1 9GY       0.123000
     42 H11          9.4440    17.3680   -10.1380 ha         1 9GY       0.126000
     43 H12         10.7430    13.7870    -9.9600 hc         1 9GY       0.065700
     44 H13         10.1450    15.0530    -8.8030 hc         1 9GY       0.065700
     45 H14          9.8090    15.1950   -10.5040 hc         1 9GY       0.065700
     46 H15         14.1340    16.8350    -9.6360 h1         1 9GY       0.085700
     47 H16         14.5120    19.2520    -9.8580 hc         1 9GY       0.048700
     48 H17         13.2310    18.7520   -10.9700 hc         1 9GY       0.048700
     49 H18         12.8210    19.6070    -9.4740 hc         1 9GY       0.048700
     50 H19         14.2260    16.6700    -7.3660 h1         1 9GY       0.071200
     51 H20         14.4850    18.4080    -7.5230 h1         1 9GY       0.071200
     52 H21          8.8840    15.7150    -4.0100 h4         1 9GY       0.058100
     53 H22         10.2630    16.2430    -1.7060 ha         1 9GY       0.148000
     54 H23         12.5700    17.4300    -2.4910 ha         1 9GY       0.155000
@<TRIPOS>BOND
     1     1     2 1   
     2     1    32 1   
     3     1    33 1   
     4     1    34 1   
     5     2     3 1   
     6     2    35 1   
     7     3     4 2   
     8     3     5 1   
     9     5     6 ar  
    10     5     7 ar  
    11     6    10 ar  
    12     6    36 1   
    13     7     8 ar  
    14     7    37 1   
    15     8     9 ar  
    16     8    38 1   
    17     9    10 ar  
    18     9    39 1   
    19    10    11 1   
    20    11    12 ar  
    21    11    14 ar  
    22    12    13 ar  
    23    12    40 1   
    24    13    16 ar  
    25    13    24 1   
    26    14    15 ar  
    27    14    41 1   
    28    15    16 ar  
    29    15    42 1   
    30    16    17 1   
    31    17    18 1   
    32    17    21 1   
    33    18    19 2   
    34    18    20 1   
    35    20    43 1   
    36    20    44 1   
    37    20    45 1   
    38    21    22 1   
    39    21    23 1   
    40    21    46 1   
    41    22    47 1   
    42    22    48 1   
    43    22    49 1   
    44    23    24 1   
    45    23    50 1   
    46    23    51 1   
    47    24    25 1   
    48    25    26 2   
    49    25    27 1   
    50    27    28 1   
    51    27    31 2   
    52    28    29 1   
    53    29    30 2   
    54    29    52 1   
    55    30    31 1   
    56    30    53 1   
    57    31    54 1   
@<TRIPOS>SUBSTRUCTURE
     1 9GY         1 TEMP              0 ****  ****    0 ROOT
