@<TRIPOS>MOLECULE
9GZ
   33    35     1     0     0
SMALL
No Charge or Current Charge


@<TRIPOS>ATOM
      1 N1           0.5130     1.4620     0.3840 na         1 9GZ       0.122200
      2 C4          -1.3770    -0.1160     0.2550 ca         1 9GZ       0.089000
      3 C5          -1.8110    -1.4350    -0.0020 ca         1 9GZ       0.262100
      4 C6          -0.8820    -2.4480    -0.3400 ca         1 9GZ      -0.276600
      5 C7          -1.3210    -3.8670    -0.6250 c          1 9GZ       0.726600
      6 C8           0.5960     2.0630     1.6350 cc         1 9GZ      -0.177000
      7 C10          1.3480     3.4340    -0.0150 cd         1 9GZ      -0.198000
      8 C13          3.1690    -0.0660     0.8730 ca         1 9GZ      -0.073000
      9 C15          5.2140    -0.0500    -0.4400 ca         1 9GZ       0.151000
     10 C17          3.1270    -0.7730    -1.4540 ca         1 9GZ      -0.073000
     11 C1           0.4920    -2.1150    -0.4130 ca         1 9GZ      -0.002000
     12 C11          0.9570     2.2830    -0.6480 cc         1 9GZ      -0.177000
     13 C12          2.4330    -0.5370    -0.2430 cp         1 9GZ      -0.012000
     14 C14          4.5500     0.1800     0.7740 ca         1 9GZ      -0.157000
     15 C16          4.5080    -0.5280    -1.5540 ca         1 9GZ      -0.157000
     16 C2           0.9640    -0.8080    -0.1500 cp         1 9GZ      -0.143000
     17 C3          -0.0050     0.1820     0.1780 ca         1 9GZ       0.060800
     18 C9           1.1280     3.3000     1.3770 cd         1 9GZ      -0.198000
     19 O1          -2.5160    -4.1220    -0.5540 o          1 9GZ      -0.674000
     20 O3          -0.4730    -4.6950    -0.9140 o          1 9GZ      -0.674000
     21 H1           0.2860     1.5810     2.5540 h4         1 9GZ       0.147000
     22 H2           1.7600     4.3100    -0.5080 ha         1 9GZ       0.118500
     23 H3           2.6620     0.1050     1.8200 ha         1 9GZ       0.123000
     24 H4           2.5840    -1.1410    -2.3220 ha         1 9GZ       0.123000
     25 H5           1.2230    -2.8810    -0.6680 ha         1 9GZ       0.135000
     26 H6           0.9600     1.9860    -1.6900 h4         1 9GZ       0.147000
     27 H7           5.1030     0.5440     1.6360 ha         1 9GZ       0.121000
     28 H8           5.0290    -0.7080    -2.4900 ha         1 9GZ       0.121000
     29 H9           1.3420     4.0580     2.1260 ha         1 9GZ       0.118500
     30 H10         -3.1900    -2.7050    -0.1530 ho         1 9GZ       0.560000
     31 I1          -2.8320     1.4540     0.7330 i          1 9GZ      -0.325000
     32 O2          -3.1420    -1.7310     0.0690 oh         1 9GZ      -0.612100
     33 F1           6.5400     0.1850    -0.5350 f          1 9GZ      -0.196000
@<TRIPOS>BOND
     1     1     6 1   
     2     1    12 1   
     3     1    17 1   
     4     2     3 ar  
     5     2    17 ar  
     6     2    31 1   
     7     3     4 ar  
     8     3    32 1   
     9     4     5 1   
    10     4    11 ar  
    11     5    19 1   
    12     5    20 1   
    13     6    18 2   
    14     6    21 1   
    15     7    12 2   
    16     7    18 1   
    17     7    22 1   
    18     8    13 ar  
    19     8    14 ar  
    20     8    23 1   
    21     9    14 ar  
    22     9    15 ar  
    23     9    33 1   
    24    10    13 ar  
    25    10    15 ar  
    26    10    24 1   
    27    11    16 ar  
    28    11    25 1   
    29    12    26 1   
    30    13    16 1   
    31    14    27 1   
    32    15    28 1   
    33    16    17 ar  
    34    18    29 1   
    35    30    32 1   
@<TRIPOS>SUBSTRUCTURE
     1 9GZ         1 TEMP              0 ****  ****    0 ROOT
