@<TRIPOS>MOLECULE
9GZ
   33    35     1     0     0
SMALL
bcc


@<TRIPOS>ATOM
      1 N1           0.4910     1.4790     0.4090 na         1 9GZ       0.020800
      2 C4          -1.3090    -0.1380     0.2230 ca         1 9GZ      -0.048100
      3 C5          -1.7740    -1.4370    -0.0150 ca         1 9GZ       0.262100
      4 C6          -0.8340    -2.4330    -0.3500 ca         1 9GZ      -0.276600
      5 C7          -1.3120    -3.8390    -0.6190 c          1 9GZ       0.937200
      6 C8           0.5450     2.0800     1.6370 cc         1 9GZ      -0.144300
      7 C10          1.3610     3.4890     0.0890 cd         1 9GZ      -0.216000
      8 C13          3.1450     0.0270     0.7870 ca         1 9GZ      -0.091000
      9 C15          5.1540    -0.0860    -0.4860 ca         1 9GZ       0.115900
     10 C17          3.1200    -0.8750    -1.4310 ca         1 9GZ      -0.091000
     11 C1           0.5080    -2.1070    -0.4290 ca         1 9GZ      -0.020000
     12 C11          0.9910     2.3290    -0.5370 cc         1 9GZ      -0.144300
     13 C12          2.4300    -0.5390    -0.2680 cp         1 9GZ      -0.012000
     14 C14          4.5070     0.2600     0.6850 ca         1 9GZ      -0.175000
     15 C16          4.4840    -0.6540    -1.5510 ca         1 9GZ      -0.175000
     16 C2           0.9810    -0.8260    -0.1680 cp         1 9GZ      -0.143000
     17 C3           0.0470     0.1630     0.1620 ca         1 9GZ       0.060800
     18 C9           1.0820     3.3290     1.4720 cd         1 9GZ      -0.216000
     19 O1          -2.5690    -4.0130    -0.5130 o          1 9GZ      -0.779300
     20 O3          -0.4940    -4.7080    -0.9150 o          1 9GZ      -0.779300
     21 H1           0.2060     1.5680     2.5220 h4         1 9GZ       0.165000
     22 H2           1.7840     4.3570    -0.3910 ha         1 9GZ       0.136500
     23 H3           2.6430     0.2830     1.7100 ha         1 9GZ       0.141000
     24 H4           2.5850    -1.3050    -2.2690 ha         1 9GZ       0.141000
     25 H5           1.2140    -2.8890    -0.6790 ha         1 9GZ       0.153000
     26 H6           1.0390     2.0370    -1.5740 h4         1 9GZ       0.165000
     27 H7           5.0560     0.6970     1.5090 ha         1 9GZ       0.139000
     28 H8           5.0110    -0.9160    -2.4590 ha         1 9GZ       0.139000
     29 H9           1.2540     4.0480     2.2570 ha         1 9GZ       0.136500
     30 H10         -3.0840    -2.7440    -0.1690 ho         1 9GZ       0.521000
     31 I1          -2.7400     1.3490     0.5910 i          1 9GZ      -0.187900
     32 O2          -3.0580    -1.7200     0.0570 oh         1 9GZ      -0.573100
     33 F1           6.4760     0.1330    -0.5900 f          1 9GZ      -0.160900
@<TRIPOS>BOND
     1     1     6 1   
     2     1    12 1   
     3     1    17 1   
     4     2     3 ar  
     5     2    17 ar  
     6     2    31 1   
     7     3     4 ar  
     8     3    32 1   
     9     4     5 1   
    10     4    11 ar  
    11     5    19 1   
    12     5    20 1   
    13     6    18 2   
    14     6    21 1   
    15     7    12 2   
    16     7    18 1   
    17     7    22 1   
    18     8    13 ar  
    19     8    14 ar  
    20     8    23 1   
    21     9    14 ar  
    22     9    15 ar  
    23     9    33 1   
    24    10    13 ar  
    25    10    15 ar  
    26    10    24 1   
    27    11    16 ar  
    28    11    25 1   
    29    12    26 1   
    30    13    16 1   
    31    14    27 1   
    32    15    28 1   
    33    16    17 ar  
    34    18    29 1   
    35    30    32 1   
@<TRIPOS>SUBSTRUCTURE
     1 9GZ         1 TEMP              0 ****  ****    0 ROOT
