@<TRIPOS>MOLECULE
9H2
   25    26     1     0     0
SMALL
No Charge or Current Charge


@<TRIPOS>ATOM
      1 C1           0.1140    -2.7410     0.1520 ca         1 9H2      -0.118300
      2 C2           1.2930    -1.9910     0.3430 ca         1 9H2      -0.008000
      3 C3           1.2690    -0.5880     0.3030 ca         1 9H2       0.151000
      4 C4           0.0560     0.0930     0.0730 ca         1 9H2       0.086800
      5 C5          -1.1300    -0.6480    -0.1130 ca         1 9H2       0.088000
      6 C6          -1.1040    -2.0600    -0.0730 ca         1 9H2       0.190100
      7 N1           0.0310     1.4840     0.0340 na         1 9H2       0.089200
      8 C7          -0.1780     2.2770     1.1570 cc         1 9H2      -0.176000
      9 C8          -0.1200     3.5580     0.6740 cd         1 9H2      -0.172000
     10 C9           0.1210     3.5230    -0.7210 cd         1 9H2      -0.172000
     11 C10          0.2170     2.2190    -1.1320 cc         1 9H2      -0.176000
     12 I1          -3.0360     0.3670    -0.4670 i          1 9H2      -0.277000
     13 I2           3.1380     0.4900     0.6020 i          1 9H2      -0.270000
     14 C11          0.1930    -4.2660     0.2070 c3         1 9H2       0.217900
     15 O1           1.1150    -4.7460    -0.7800 oh         1 9H2      -0.664000
     16 O2          -2.2680    -2.7610    -0.2510 oh         1 9H2      -0.528100
     17 H1           2.2380    -2.4990     0.5190 ha         1 9H2       0.157000
     18 H2          -0.3410     1.8800     2.1520 h4         1 9H2       0.150000
     19 H3          -0.2410     4.4580     1.2710 ha         1 9H2       0.133000
     20 H4           0.2150     4.3920    -1.3670 ha         1 9H2       0.133000
     21 H5           0.3940     1.7720    -2.1030 h4         1 9H2       0.150000
     22 H6           0.5240    -4.5630     1.2110 h1         1 9H2       0.039200
     23 H7          -0.7950    -4.7160     0.0480 h1         1 9H2       0.039200
     24 H8           1.1150    -5.7270    -0.7120 ho         1 9H2       0.453000
     25 H9          -2.9950    -2.1150    -0.3950 ho         1 9H2       0.486000
@<TRIPOS>BOND
     1     1     2 ar  
     2     1     6 ar  
     3     1    14 1   
     4     2     3 ar  
     5     2    17 1   
     6     3     4 ar  
     7     3    13 1   
     8     4     5 ar  
     9     4     7 1   
    10     5     6 ar  
    11     5    12 1   
    12     6    16 1   
    13     7     8 1   
    14     7    11 1   
    15     8     9 2   
    16     8    18 1   
    17     9    10 1   
    18     9    19 1   
    19    10    11 2   
    20    10    20 1   
    21    11    21 1   
    22    14    15 1   
    23    14    22 1   
    24    14    23 1   
    25    15    24 1   
    26    16    25 1   
@<TRIPOS>SUBSTRUCTURE
     1 9H2         1 TEMP              0 ****  ****    0 ROOT
