@<TRIPOS>MOLECULE
9H2
   25    26     1     0     0
SMALL
bcc


@<TRIPOS>ATOM
      1 C1           0.1140    -2.7280     0.0360 ca         1 9H2      -0.118300
      2 C2           1.2910    -2.0090     0.1140 ca         1 9H2      -0.026000
      3 C3           1.2760    -0.6200     0.1150 ca         1 9H2       0.013900
      4 C4           0.0780     0.0730     0.0330 ca         1 9H2       0.086800
      5 C5          -1.1140    -0.6520    -0.0490 ca         1 9H2      -0.049100
      6 C6          -1.1090    -2.0450    -0.0430 ca         1 9H2       0.190100
      7 N1           0.0510     1.4790     0.0290 na         1 9H2      -0.012200
      8 C7          -0.0970     2.2680     1.1370 cc         1 9H2      -0.143300
      9 C8          -0.0860     3.5730     0.7260 cd         1 9H2      -0.190000
     10 C9           0.0750     3.5720    -0.6850 cd         1 9H2      -0.190000
     11 C10          0.1560     2.2660    -1.0860 cc         1 9H2      -0.143300
     12 I1          -2.9310     0.3890    -0.1920 i          1 9H2      -0.139900
     13 I2           3.0900     0.4250     0.2490 i          1 9H2      -0.132900
     14 C11          0.1020    -4.2330     0.0360 c3         1 9H2       0.194700
     15 O1           1.4180    -4.7110     0.0940 oh         1 9H2      -0.601800
     16 O2          -2.2020    -2.8120    -0.1170 oh         1 9H2      -0.489100
     17 H1           2.2300    -2.5390     0.1780 ha         1 9H2       0.175000
     18 H2          -0.1980     1.8330     2.1190 h4         1 9H2       0.168000
     19 H3          -0.1830     4.4350     1.3680 ha         1 9H2       0.151000
     20 H4           0.1260     4.4320    -1.3330 ha         1 9H2       0.151000
     21 H5           0.2800     1.8290    -2.0630 h4         1 9H2       0.168000
     22 H6          -0.4940    -4.5820     0.8900 h1         1 9H2       0.039200
     23 H7          -0.4160    -4.5820    -0.8670 h1         1 9H2       0.039200
     24 H8           1.3870    -5.6720     0.0940 ho         1 9H2       0.414000
     25 H9          -3.0200    -2.2980    -0.1480 ho         1 9H2       0.447000
@<TRIPOS>BOND
     1     1     2 ar  
     2     1     6 ar  
     3     1    14 1   
     4     2     3 ar  
     5     2    17 1   
     6     3     4 ar  
     7     3    13 1   
     8     4     5 ar  
     9     4     7 1   
    10     5     6 ar  
    11     5    12 1   
    12     6    16 1   
    13     7     8 1   
    14     7    11 1   
    15     8     9 2   
    16     8    18 1   
    17     9    10 1   
    18     9    19 1   
    19    10    11 2   
    20    10    20 1   
    21    11    21 1   
    22    14    15 1   
    23    14    22 1   
    24    14    23 1   
    25    15    24 1   
    26    16    25 1   
@<TRIPOS>SUBSTRUCTURE
     1 9H2         1 TEMP              0 ****  ****    0 ROOT
