@<TRIPOS>MOLECULE
9H3
   47    51     1     0     0
SMALL
abcg2


@<TRIPOS>ATOM
      1 C10          2.3110     0.3710     0.3680 c5         1 9H3      -0.096700
      2 C11          3.1990    -0.5500    -0.4120 ca         1 9H3      -0.160300
      3 C12          2.9250    -1.5010    -1.3750 ca         1 9H3      -0.052000
      4 C13          3.9850    -2.2270    -1.9130 ca         1 9H3      -0.129000
      5 C14          5.2890    -1.9990    -1.4870 ca         1 9H3      -0.079000
      6 C15          5.5770    -1.0410    -0.5170 ca         1 9H3      -0.107000
      7 C01         -5.2190    -0.5610    -1.2380 c6         1 9H3      -0.002200
      8 C02         -3.9250    -0.0740    -0.6510 cc         1 9H3      -0.296400
      9 C03         -3.2790     1.0460    -1.2660 c          1 9H3       0.574200
     10 C06         -1.5540     0.8030     0.4200 cc         1 9H3       0.723800
     11 C08          0.3010     0.4840     1.9450 c6         1 9H3       0.209300
     12 C09          1.3310    -0.4120     1.2690 c6         1 9H3      -0.086400
     13 C16          4.5050    -0.3420    -0.0100 ca         1 9H3       0.108100
     14 C18          3.3480     1.1090     1.2150 c          1 9H3       0.656100
     15 C20          1.5400     1.3530    -0.5370 c6         1 9H3      -0.086400
     16 C21          0.5040     2.1620     0.2340 c6         1 9H3       0.209300
     17 C23         -3.3330    -0.6310     0.4500 cd         1 9H3       0.229400
     18 C24         -3.9610    -1.7950     1.1620 c6         1 9H3      -0.034200
     19 C25         -5.4290    -1.9840     0.8120 c6         1 9H3      -0.073400
     20 C26         -5.6190    -1.9280    -0.6970 c6         1 9H3      -0.076400
     21 N05         -2.0820     1.4220    -0.6660 ns         1 9H3      -0.435400
     22 N07         -0.4020     1.2800     0.9510 nh         1 9H3      -0.735600
     23 N22         -2.1570    -0.2120     0.9760 nd         1 9H3      -0.728300
     24 O17          4.5910     0.6370     0.9500 os         1 9H3      -0.311200
     25 O19          3.1890     1.9810     2.0160 o          1 9H3      -0.467000
     26 H1           1.9100    -1.6830    -1.7070 ha         1 9H3       0.124000
     27 H2           3.7940    -2.9780    -2.6670 ha         1 9H3       0.122000
     28 H3           6.0980    -2.5770    -1.9120 ha         1 9H3       0.122000
     29 H4           6.5890    -0.8610    -0.1810 ha         1 9H3       0.140000
     30 H5          -6.0130     0.1650    -1.0320 hc         1 9H3       0.053700
     31 H6          -5.1360    -0.6010    -2.3270 hc         1 9H3       0.053700
     32 H7          -0.4100    -0.1180     2.5020 h1         1 9H3       0.077950
     33 H8           0.8070    -1.1350     0.6370 hc         1 9H3       0.064950
     34 H9           2.2330     2.0220    -1.0520 hc         1 9H3       0.064950
     35 H10          1.0350     0.7670    -1.3100 hc         1 9H3       0.064950
     36 H11          0.9820     2.8120     0.9670 h1         1 9H3       0.077950
     37 H12         -0.0230     2.8360    -0.4390 h1         1 9H3       0.077950
     38 H13         -3.3970    -2.6960     0.8940 hc         1 9H3       0.061700
     39 H14         -3.8200    -1.6630     2.2370 hc         1 9H3       0.061700
     40 H15         -5.7840    -2.9340     1.2150 hc         1 9H3       0.044700
     41 H16         -6.0270    -1.1990     1.2860 hc         1 9H3       0.044700
     42 H17         -6.6550    -2.1420    -0.9670 hc         1 9H3       0.041700
     43 H18         -5.0060    -2.7040    -1.1640 hc         1 9H3       0.041700
     44 H19         -1.6220     2.2170    -1.0860 hn         1 9H3       0.325500
     45 H20          0.7760     1.1690     2.6490 h1         1 9H3       0.077950
     46 H21          1.8780    -0.9890     2.0170 hc         1 9H3       0.064950
     47 O04         -3.6830     1.6720    -2.2390 o          1 9H3      -0.559000
@<TRIPOS>BOND
     1     1     2 1   
     2     1    12 1   
     3     1    14 1   
     4     1    15 1   
     5     2     3 ar  
     6     2    13 ar  
     7     3     4 ar  
     8     3    26 1   
     9     4     5 ar  
    10     4    27 1   
    11     5     6 ar  
    12     5    28 1   
    13     6    13 ar  
    14     6    29 1   
    15     7     8 1   
    16     7    20 1   
    17     7    30 1   
    18     7    31 1   
    19     8     9 1   
    20     8    17 2   
    21     9    21 1   
    22     9    47 2   
    23    10    21 1   
    24    10    22 1   
    25    10    23 2   
    26    11    12 1   
    27    11    22 1   
    28    11    32 1   
    29    11    45 1   
    30    12    33 1   
    31    12    46 1   
    32    13    24 1   
    33    14    24 1   
    34    14    25 2   
    35    15    16 1   
    36    15    34 1   
    37    15    35 1   
    38    16    22 1   
    39    16    36 1   
    40    16    37 1   
    41    17    18 1   
    42    17    23 1   
    43    18    19 1   
    44    18    38 1   
    45    18    39 1   
    46    19    20 1   
    47    19    40 1   
    48    19    41 1   
    49    20    42 1   
    50    20    43 1   
    51    21    44 1   
@<TRIPOS>SUBSTRUCTURE
     1 9H3         1 TEMP              0 ****  ****    0 ROOT
