@<TRIPOS>MOLECULE
9H3
   47    51     1     0     0
SMALL
No Charge or Current Charge


@<TRIPOS>ATOM
      1 C10          2.4140     0.3810     0.3080 c5         1 9H3      -0.096700
      2 C11          3.3880    -0.6220    -0.2830 ca         1 9H3      -0.160300
      3 C12          3.1420    -1.7780    -1.0420 ca         1 9H3      -0.052000
      4 C13          4.2470    -2.5430    -1.4730 ca         1 9H3      -0.129000
      5 C14          5.5670    -2.1510    -1.1450 ca         1 9H3      -0.079000
      6 C15          5.7920    -0.9870    -0.3810 ca         1 9H3      -0.107000
      7 C01         -5.5470    -0.1830    -0.8400 c6         1 9H3      -0.002200
      8 C02         -4.1270     0.1410    -0.3900 cc         1 9H3      -0.296400
      9 C03         -3.6560     1.4900    -0.7120 c          1 9H3       0.574200
     10 C06         -1.6520     0.8230     0.3660 cc         1 9H3       0.723800
     11 C08          0.3580     0.6460     1.8420 c6         1 9H3       0.209300
     12 C09          1.4410    -0.3220     1.3020 c6         1 9H3      -0.086400
     13 C16          4.6770    -0.2500     0.0300 ca         1 9H3       0.108100
     14 C18          3.4250     1.3720     1.0040 c          1 9H3       0.656100
     15 C20          1.5600     1.0440    -0.8160 c6         1 9H3      -0.086400
     16 C21          0.4750     1.9950    -0.2500 c6         1 9H3       0.209300
     17 C23         -3.3400    -0.7640     0.3140 cd         1 9H3       0.229400
     18 C24         -3.8300    -2.1590     0.6600 c6         1 9H3      -0.034200
     19 C25         -5.3640    -2.3030     0.5450 c6         1 9H3      -0.073400
     20 C26         -5.8540    -1.6970    -0.7840 c6         1 9H3      -0.076400
     21 N05         -2.4090     1.7210    -0.2870 ns         1 9H3      -0.435400
     22 N07         -0.3980     1.2640     0.7150 nh         1 9H3      -0.735600
     23 N22         -2.0520    -0.3910     0.7040 nd         1 9H3      -0.728300
     24 O17          4.6890     0.8900     0.7660 os         1 9H3      -0.311200
     25 O19          3.1860     2.3870     1.6440 o          1 9H3      -0.467000
     26 H1           2.1270    -2.0780    -1.2930 ha         1 9H3       0.124000
     27 H2           4.0820    -3.4430    -2.0620 ha         1 9H3       0.122000
     28 H3           6.4110    -2.7500    -1.4830 ha         1 9H3       0.122000
     29 H4           6.7980    -0.6690    -0.1190 ha         1 9H3       0.140000
     30 H5          -6.2660     0.3500    -0.2020 hc         1 9H3       0.053700
     31 H6          -5.7320     0.1740    -1.8630 hc         1 9H3       0.053700
     32 H7          -0.3100     0.1010     2.5250 h1         1 9H3       0.077950
     33 H8           0.9430    -1.1650     0.8050 hc         1 9H3       0.064950
     34 H9           2.2130     1.5980    -1.5060 hc         1 9H3       0.064950
     35 H10          1.0680     0.2670    -1.4170 hc         1 9H3       0.064950
     36 H11          0.9560     2.8500     0.2490 h1         1 9H3       0.077950
     37 H12         -0.0970     2.4080    -1.0940 h1         1 9H3       0.077950
     38 H13         -3.3500    -2.8840    -0.0110 hc         1 9H3       0.061700
     39 H14         -3.5160    -2.4340     1.6760 hc         1 9H3       0.061700
     40 H15         -5.6470    -3.3620     0.6080 hc         1 9H3       0.044700
     41 H16         -5.8520    -1.7940     1.3880 hc         1 9H3       0.044700
     42 H17         -6.9340    -1.8620    -0.9010 hc         1 9H3       0.041700
     43 H18         -5.3660    -2.2070    -1.6260 hc         1 9H3       0.041700
     44 H19         -2.0370     2.6400    -0.4450 hn         1 9H3       0.325500
     45 H20          0.8360     1.4310     2.4460 h1         1 9H3       0.077950
     46 H21          2.0050    -0.7510     2.1420 hc         1 9H3       0.064950
     47 O04         -4.2990     2.3460    -1.2980 o          1 9H3      -0.559000
@<TRIPOS>BOND
     1     1     2 1   
     2     1    12 1   
     3     1    14 1   
     4     1    15 1   
     5     2     3 ar  
     6     2    13 ar  
     7     3     4 ar  
     8     3    26 1   
     9     4     5 ar  
    10     4    27 1   
    11     5     6 ar  
    12     5    28 1   
    13     6    13 ar  
    14     6    29 1   
    15     7     8 1   
    16     7    20 1   
    17     7    30 1   
    18     7    31 1   
    19     8     9 1   
    20     8    17 2   
    21     9    21 1   
    22     9    47 2   
    23    10    21 1   
    24    10    22 1   
    25    10    23 2   
    26    11    12 1   
    27    11    22 1   
    28    11    32 1   
    29    11    45 1   
    30    12    33 1   
    31    12    46 1   
    32    13    24 1   
    33    14    24 1   
    34    14    25 2   
    35    15    16 1   
    36    15    34 1   
    37    15    35 1   
    38    16    22 1   
    39    16    36 1   
    40    16    37 1   
    41    17    18 1   
    42    17    23 1   
    43    18    19 1   
    44    18    38 1   
    45    18    39 1   
    46    19    20 1   
    47    19    40 1   
    48    19    41 1   
    49    20    42 1   
    50    20    43 1   
    51    21    44 1   
@<TRIPOS>SUBSTRUCTURE
     1 9H3         1 TEMP              0 ****  ****    0 ROOT
