@<TRIPOS>MOLECULE
9H4
  103   108     1     0     0
SMALL
No Charge or Current Charge


@<TRIPOS>ATOM
      1 C10        -12.4980   -15.6230    15.7210 ca         1 9H4       0.554300
      2 C13        -12.7150   -18.4030    16.7680 c5         1 9H4      -0.111400
      3 C20        -15.7400   -23.9530    15.7330 c3         1 9H4      -0.048200
      4 C21        -14.7720   -24.9650    15.1350 c2         1 9H4      -0.189200
      5 C22        -12.1440   -22.6230    14.4290 cx         1 9H4      -0.069600
      6 C24        -12.9930   -20.7420    15.8180 c          1 9H4       0.592100
      7 C01        -15.0780   -17.9470    16.9800 c5         1 9H4       0.105000
      8 C02        -17.3330   -19.6990    15.8350 c3         1 9H4       0.061700
      9 C03        -16.7110   -21.5220    17.6110 c3         1 9H4      -0.080400
     10 C04        -15.7050   -23.9300    17.2780 c3         1 9H4      -0.073400
     11 C05        -13.7400   -24.7120    14.3070 c2         1 9H4      -0.191200
     12 C06        -13.3290   -23.3620    13.8200 cx         1 9H4      -0.035500
     13 C07        -12.0820   -23.1330    13.0020 cx         1 9H4      -0.096400
     14 C08        -12.6150   -15.8820    13.1530 c3         1 9H4      -0.139400
     15 C09        -11.9580   -15.3520    14.4210 ca         1 9H4       0.320300
     16 C12        -13.7030   -17.2200    16.9870 c5         1 9H4       0.165300
     17 C14        -13.4270   -19.2520    15.6680 c5         1 9H4       0.030700
     18 C16        -15.8930   -19.6170    15.2370 c          1 9H4       0.593100
     19 C18        -17.6180   -21.1080    16.4220 c3         1 9H4      -0.087400
     20 C19        -16.7730   -23.0320    17.9650 c3         1 9H4      -0.066400
     21 C32         -8.1950   -21.1110    17.1130 cx         1 9H4      -0.396000
     22 C33         -7.2440   -20.5060    16.0960 cx         1 9H4      -0.080400
     23 C34         -6.7180   -20.9670    17.4380 cx         1 9H4      -0.080400
     24 C39        -21.5710   -18.3610    13.6460 c3         1 9H4       0.224000
     25 C40        -21.8200   -18.3510    12.1210 c3         1 9H4      -0.109100
     26 C41        -21.7080   -16.9250    14.2140 c3         1 9H4      -0.109100
     27 C42        -22.5220   -19.3780    14.3290 c3         1 9H4      -0.109100
     28 C44        -10.7790   -14.3950    16.6720 ca         1 9H4       0.306000
     29 C45        -10.1340   -13.8780    17.8070 ca         1 9H4      -0.203000
     30 C46         -8.9540   -13.1180    17.6820 ca         1 9H4       0.164100
     31 C49         -8.4200   -12.8760    16.4090 ca         1 9H4      -0.140000
     32 C50         -9.0530   -13.3840    15.2630 ca         1 9H4      -0.029000
     33 C51        -10.2310   -14.1450    15.3680 ca         1 9H4       0.166000
     34 C53         -9.2180   -20.2140    17.8220 c3         1 9H4      -0.044100
     35 N15        -14.8600   -19.0480    16.0100 n          1 9H4      -0.385800
     36 N23        -12.4220   -21.2110    14.6490 ns         1 9H4      -0.476900
     37 N28        -10.1070   -22.5130    15.7100 ns         1 9H4      -0.574300
     38 N35        -18.3170   -19.3900    14.7790 ns         1 9H4      -0.483900
     39 N43        -11.9120   -15.1240    16.8450 nb         1 9H4      -0.757000
     40 N52        -10.8230   -14.6220    14.2410 nb         1 9H4      -0.613000
     41 O11        -13.6800   -16.3490    15.8130 os         1 9H4      -0.444300
     42 O17        -15.6370   -20.1090    14.1430 o          1 9H4      -0.625100
     43 O25        -13.1090   -21.4360    16.8180 o          1 9H4      -0.568100
     44 O27        -11.2860   -24.4370    15.8430 o          1 9H4      -0.539100
     45 O30         -7.8690   -23.6130    16.0970 o          1 9H4      -0.517000
     46 O31         -9.4840   -23.3270    18.0400 o          1 9H4      -0.517000
     47 O37        -20.0710   -18.7400    16.0970 o          1 9H4      -0.555000
     48 O38        -20.2020   -18.8100    13.7810 os         1 9H4      -0.470100
     49 O47         -8.2880   -12.5930    18.7700 os         1 9H4      -0.334100
     50 S29         -8.8890   -22.8250    16.7960 s6         1 9H4       1.256800
     51 H132       -12.6050   -18.9630    17.7040 hc         1 9H4       0.076200
     52 H131       -11.7070   -18.0920    16.4730 hc         1 9H4       0.076200
     53 H202       -15.5210   -22.9450    15.3660 hc         1 9H4       0.047200
     54 H201       -16.7590   -24.1920    15.4040 hc         1 9H4       0.047200
     55 H211       -14.9800   -25.9960    15.4270 ha         1 9H4       0.168000
     56 H012       -15.8860   -17.2700    16.6740 h1         1 9H4       0.077200
     57 H011       -15.3190   -18.3480    17.9740 h1         1 9H4       0.077200
     58 H021       -17.4350   -18.9530    16.6320 h1         1 9H4       0.078700
     59 H031       -15.6690   -21.2490    17.4190 hc         1 9H4       0.049700
     60 H032       -17.0180   -20.9400    18.4890 hc         1 9H4       0.049700
     61 H041       -15.8350   -24.9550    17.6470 hc         1 9H4       0.047700
     62 H042       -14.7070   -23.6120    17.6040 hc         1 9H4       0.047700
     63 H051       -13.1290   -25.5420    13.9450 ha         1 9H4       0.190000
     64 H061       -14.1790   -22.7500    13.5240 hc         1 9H4       0.101700
     65 H071       -11.4500   -23.9920    12.7920 hc         1 9H4       0.087200
     66 H072       -12.1310   -22.4050    12.1960 hc         1 9H4       0.087200
     67 H081       -12.1310   -15.4960    12.2480 hc         1 9H4       0.061367
     68 H083       -12.5640   -16.9760    13.1190 hc         1 9H4       0.061367
     69 H082       -13.6720   -15.5940    13.1130 hc         1 9H4       0.061367
     70 H121       -13.5450   -16.6540    17.9160 h1         1 9H4       0.088700
     71 H141       -13.2090   -18.8820    14.6580 h1         1 9H4       0.076700
     72 H182       -18.6610   -21.1530    16.7580 hc         1 9H4       0.057700
     73 H181       -17.5330   -21.8400    15.6120 hc         1 9H4       0.057700
     74 H192       -17.7760   -23.4220    17.7500 hc         1 9H4       0.036700
     75 H191       -16.6370   -23.1320    19.0490 hc         1 9H4       0.036700
     76 H332        -6.9710   -21.0930    15.2210 hc         1 9H4       0.087700
     77 H331        -7.2940   -19.4340    15.9160 hc         1 9H4       0.087700
     78 H341        -6.0990   -21.8610    17.4550 hc         1 9H4       0.087700
     79 H342        -6.4200   -20.2020    18.1520 hc         1 9H4       0.087700
     80 H403       -21.6830   -19.3530    11.6970 hc         1 9H4       0.049922
     81 H402       -22.8410   -18.0230    11.8950 hc         1 9H4       0.049922
     82 H401       -21.1240   -17.6690    11.6180 hc         1 9H4       0.049922
     83 H411       -21.6700   -16.9110    15.3080 hc         1 9H4       0.049922
     84 H412       -20.9110   -16.2770    13.8300 hc         1 9H4       0.049922
     85 H413       -22.6690   -16.4880    13.9180 hc         1 9H4       0.049922
     86 H423       -22.4670   -19.3210    15.4220 hc         1 9H4       0.049922
     87 H422       -23.5620   -19.1770    14.0470 hc         1 9H4       0.049922
     88 H421       -22.2810   -20.4030    14.0230 hc         1 9H4       0.049922
     89 H451       -10.5680   -14.0800    18.7800 ha         1 9H4       0.133000
     90 H481        -8.0750   -12.2840    20.8260 h1         1 9H4       0.044700
     91 H483        -9.7530   -12.3600    20.2520 h1         1 9H4       0.044700
     92 H482        -8.7790   -13.8500    20.3750 h1         1 9H4       0.044700
     93 H491        -7.5100   -12.2890    16.3100 ha         1 9H4       0.135000
     94 H501        -8.6280   -13.1870    14.2820 ha         1 9H4       0.136000
     95 H532        -8.8180   -19.2080    17.9940 hc         1 9H4       0.054700
     96 H531       -10.1350   -20.1030    17.2290 hc         1 9H4       0.054700
     97 H533        -9.4990   -20.6250    18.8000 hc         1 9H4       0.054700
     98 H231       -12.3780   -20.5640    13.8690 hn         1 9H4       0.323500
     99 H1         -10.0440   -21.5950    15.3080 hn         1 9H4       0.336500
    100 H351       -18.0530   -19.5260    13.8110 hn         1 9H4       0.331500
    101 C26        -11.1630   -23.3030    15.4040 c          1 9H4       0.681100
    102 C36        -19.5930   -18.9600    14.9960 c          1 9H4       0.647100
    103 C48         -8.7500   -12.7830    20.1200 c3         1 9H4       0.145900
@<TRIPOS>BOND
     1     1    15 ar  
     2     1    39 ar  
     3     1    41 1   
     4     2    16 1   
     5     2    17 1   
     6     2    51 1   
     7     2    52 1   
     8     3     4 1   
     9     3    10 1   
    10     3    53 1   
    11     3    54 1   
    12     4    11 2   
    13     4    55 1   
    14     5    12 1   
    15     5    13 1   
    16     5    36 1   
    17     5   101 1   
    18     6    17 1   
    19     6    36 1   
    20     6    43 2   
    21     7    16 1   
    22     7    35 1   
    23     7    56 1   
    24     7    57 1   
    25     8    18 1   
    26     8    19 1   
    27     8    38 1   
    28     8    58 1   
    29     9    19 1   
    30     9    20 1   
    31     9    59 1   
    32     9    60 1   
    33    10    20 1   
    34    10    61 1   
    35    10    62 1   
    36    11    12 1   
    37    11    63 1   
    38    12    13 1   
    39    12    64 1   
    40    13    65 1   
    41    13    66 1   
    42    14    15 1   
    43    14    67 1   
    44    14    68 1   
    45    14    69 1   
    46    15    40 ar  
    47    16    41 1   
    48    16    70 1   
    49    17    35 1   
    50    17    71 1   
    51    18    35 1   
    52    18    42 2   
    53    19    72 1   
    54    19    73 1   
    55    20    74 1   
    56    20    75 1   
    57    21    22 1   
    58    21    23 1   
    59    21    34 1   
    60    21    50 1   
    61    22    23 1   
    62    22    76 1   
    63    22    77 1   
    64    23    78 1   
    65    23    79 1   
    66    24    25 1   
    67    24    26 1   
    68    24    27 1   
    69    24    48 1   
    70    25    80 1   
    71    25    81 1   
    72    25    82 1   
    73    26    83 1   
    74    26    84 1   
    75    26    85 1   
    76    27    86 1   
    77    27    87 1   
    78    27    88 1   
    79    28    29 ar  
    80    28    33 ar  
    81    28    39 ar  
    82    29    30 ar  
    83    29    89 1   
    84    30    31 ar  
    85    30    49 1   
    86    31    32 ar  
    87    31    93 1   
    88    32    33 ar  
    89    32    94 1   
    90    33    40 ar  
    91    34    95 1   
    92    34    96 1   
    93    34    97 1   
    94    36    98 1   
    95    37    50 1   
    96    37    99 1   
    97    37   101 1   
    98    38   100 1   
    99    38   102 1   
   100    44   101 2   
   101    45    50 2   
   102    46    50 2   
   103    47   102 2   
   104    48   102 1   
   105    49   103 1   
   106    90   103 1   
   107    91   103 1   
   108    92   103 1   
@<TRIPOS>SUBSTRUCTURE
     1 9H4         1 TEMP              0 ****  ****    0 ROOT
