@<TRIPOS>MOLECULE
9H4
  103   108     1     0     0
SMALL
bcc


@<TRIPOS>ATOM
      1 C10        -13.4660   -15.6750    16.0500 ca         1 9H4       0.554300
      2 C13        -12.8430   -18.6460    16.6370 c5         1 9H4      -0.111400
      3 C20        -15.5400   -24.4930    16.0430 c3         1 9H4      -0.048200
      4 C21        -14.4510   -25.3350    15.4560 c2         1 9H4      -0.139200
      5 C22        -12.1460   -22.6710    14.2630 cx         1 9H4      -0.069600
      6 C24        -13.1200   -20.9430    15.6170 c          1 9H4       0.659100
      7 C01        -15.1010   -18.6110    17.3690 c5         1 9H4       0.105000
      8 C02        -17.3210   -20.3330    16.3040 c3         1 9H4       0.061700
      9 C03        -16.5580   -22.1630    17.9150 c3         1 9H4      -0.080400
     10 C04        -15.4790   -24.4760    17.5720 c3         1 9H4      -0.073400
     11 C05        -13.4790   -24.9490    14.6270 c2         1 9H4      -0.141200
     12 C06        -13.3550   -23.5890    14.0680 cx         1 9H4      -0.035500
     13 C07        -12.4780   -23.2510    12.9160 cx         1 9H4      -0.096400
     14 C08        -15.1630   -15.0130    14.2700 c3         1 9H4      -0.139400
     15 C09        -13.9050   -14.7550    15.0320 ca         1 9H4       0.320300
     16 C12        -13.8940   -17.7060    17.2100 c5         1 9H4       0.142100
     17 C14        -13.6450   -19.5150    15.6620 c5         1 9H4       0.030700
     18 C16        -15.9500   -20.2170    15.6310 c          1 9H4       0.660100
     19 C18        -17.5160   -21.7700    16.7930 c3         1 9H4      -0.087400
     20 C19        -16.5810   -23.6620    18.2490 c3         1 9H4      -0.066400
     21 C32         -8.8830   -21.1160    17.5660 cx         1 9H4      -0.285200
     22 C33         -8.4900   -19.8120    16.9280 cx         1 9H4      -0.080400
     23 C34         -7.5570   -20.4870    17.8770 cx         1 9H4      -0.080400
     24 C39        -19.5750   -17.4870    13.0980 c3         1 9H4       0.200800
     25 C40        -20.5050   -17.9580    11.9860 c3         1 9H4      -0.109100
     26 C41        -18.3090   -16.8940    12.4890 c3         1 9H4      -0.109100
     27 C42        -20.2990   -16.4880    13.9910 c3         1 9H4      -0.109100
     28 C44        -11.6310   -14.4150    16.4650 ca         1 9H4       0.371300
     29 C45        -10.4370   -14.2020    17.1770 ca         1 9H4      -0.286300
     30 C46         -9.6780   -13.0830    16.9110 ca         1 9H4       0.164100
     31 C49        -10.0970   -12.1560    15.9260 ca         1 9H4      -0.158000
     32 C50        -11.2530   -12.3620    15.2290 ca         1 9H4      -0.112300
     33 C51        -12.0470   -13.4990    15.4810 ca         1 9H4       0.231300
     34 C53         -9.9680   -21.1770    18.6100 c3         1 9H4      -0.044100
     35 N15        -14.9830   -19.5100    16.2300 n          1 9H4      -0.452800
     36 N23        -12.4590   -21.3000    14.4890 ns         1 9H4      -0.543900
     37 N28        -10.2160   -22.2440    15.6250 ns         1 9H4      -0.641300
     38 N35        -18.3540   -20.0050    15.3510 ns         1 9H4      -0.550900
     39 N43        -12.3800   -15.5160    16.7310 nb         1 9H4      -0.757000
     40 N52        -13.1920   -13.7000    14.7800 nb         1 9H4      -0.613000
     41 O11        -14.2670   -16.7140    16.2540 os         1 9H4      -0.421100
     42 O17        -15.7400   -20.8120    14.5800 o          1 9H4      -0.625100
     43 O25        -13.2440   -21.6960    16.5610 o          1 9H4      -0.568100
     44 O27        -10.5860   -24.3610    14.8960 o          1 9H4      -0.539100
     45 O30         -7.6670   -22.4680    15.6370 o          1 9H4      -0.587800
     46 O31         -9.0280   -23.7430    17.2970 o          1 9H4      -0.587800
     47 O37        -17.8110   -17.8110    15.2970 o          1 9H4      -0.604000
     48 O38        -19.2890   -18.7100    13.8290 os         1 9H4      -0.446900
     49 O47         -8.5260   -12.7800    17.5290 os         1 9H4      -0.310900
     50 S29         -8.8210   -22.5390    16.5170 s6         1 9H4       1.287600
     51 H132       -12.4450   -19.2460    17.4580 hc         1 9H4       0.076200
     52 H131       -12.0110   -18.1340    16.1570 hc         1 9H4       0.076200
     53 H202       -15.4870   -23.4720    15.6670 hc         1 9H4       0.047200
     54 H201       -16.5120   -24.8940    15.7330 hc         1 9H4       0.047200
     55 H211       -14.4540   -26.3780    15.7630 ha         1 9H4       0.118000
     56 H012       -16.0330   -18.0500    17.3450 h1         1 9H4       0.077200
     57 H011       -15.0360   -19.1500    18.3170 h1         1 9H4       0.077200
     58 H021       -17.4050   -19.6630    17.1610 h1         1 9H4       0.078700
     59 H031       -15.5340   -21.8740    17.6670 hc         1 9H4       0.049700
     60 H032       -16.8260   -21.5850    18.8050 hc         1 9H4       0.049700
     61 H041       -15.5210   -25.5060    17.9420 hc         1 9H4       0.047700
     62 H042       -14.5060   -24.0780    17.8750 hc         1 9H4       0.047700
     63 H051       -12.7520   -25.6850    14.3080 ha         1 9H4       0.140000
     64 H061       -14.2620   -22.9990    14.1100 hc         1 9H4       0.101700
     65 H071       -11.8050   -24.0100    12.5390 hc         1 9H4       0.087200
     66 H072       -12.8490   -22.5640    12.1650 hc         1 9H4       0.087200
     67 H081       -15.3300   -14.2140    13.5520 hc         1 9H4       0.061367
     68 H083       -15.1100   -15.9620    13.7330 hc         1 9H4       0.061367
     69 H082       -16.0270   -15.0800    14.9330 hc         1 9H4       0.061367
     70 H121       -13.5910   -17.2420    18.1490 h1         1 9H4       0.088700
     71 H141       -13.6510   -19.0740    14.6610 h1         1 9H4       0.076700
     72 H182       -18.5460   -21.8670    17.1480 hc         1 9H4       0.057700
     73 H181       -17.4160   -22.4480    15.9420 hc         1 9H4       0.057700
     74 H192       -17.5610   -24.0840    17.9990 hc         1 9H4       0.036700
     75 H191       -16.4720   -23.7890    19.3290 hc         1 9H4       0.036700
     76 H332        -8.2180   -19.7930    15.8800 hc         1 9H4       0.087700
     77 H331        -9.0410   -18.9420    17.2640 hc         1 9H4       0.087700
     78 H341        -6.6550   -20.9250    17.4730 hc         1 9H4       0.087700
     79 H342        -7.4550   -20.0940    18.8790 hc         1 9H4       0.087700
     80 H403       -21.4010   -18.4330    12.3890 hc         1 9H4       0.049922
     81 H402       -20.8200   -17.1050    11.3850 hc         1 9H4       0.049922
     82 H401       -20.0070   -18.6680    11.3240 hc         1 9H4       0.049922
     83 H411       -17.6670   -16.4280    13.2320 hc         1 9H4       0.049922
     84 H412       -17.7330   -17.6550    11.9600 hc         1 9H4       0.049922
     85 H413       -18.5880   -16.1310    11.7610 hc         1 9H4       0.049922
     86 H423       -19.6690   -16.1220    14.8000 hc         1 9H4       0.049922
     87 H422       -20.6090   -15.6280    13.3960 hc         1 9H4       0.049922
     88 H421       -21.1980   -16.9310    14.4230 hc         1 9H4       0.049922
     89 H451       -10.1530   -14.9360    17.9190 ha         1 9H4       0.151000
     90 H481        -7.1080   -13.2420    18.8820 h1         1 9H4       0.044700
     91 H483        -8.7360   -13.7640    19.3550 h1         1 9H4       0.044700
     92 H482        -7.8400   -14.6610    18.1090 h1         1 9H4       0.044700
     93 H491        -9.4860   -11.2830    15.7330 ha         1 9H4       0.153000
     94 H501       -11.5750   -11.6560    14.4740 ha         1 9H4       0.154000
     95 H532        -9.9590   -20.2510    19.1840 hc         1 9H4       0.054700
     96 H531       -10.9590   -21.2830    18.1680 hc         1 9H4       0.054700
     97 H533        -9.8100   -22.0010    19.3030 hc         1 9H4       0.054700
     98 H231       -12.4360   -20.6630    13.7070 hn         1 9H4       0.323500
     99 H1         -10.4270   -21.2700    15.4420 hn         1 9H4       0.336500
    100 H351       -18.7660   -20.7610    14.8260 hn         1 9H4       0.331500
    101 C26        -10.9280   -23.2020    14.9440 c          1 9H4       0.748100
    102 C36        -18.4340   -18.7500    14.8470 c          1 9H4       0.763100
    103 C48         -8.0400   -13.6670    18.5180 c3         1 9H4       0.122700
@<TRIPOS>BOND
     1     1    15 ar  
     2     1    39 ar  
     3     1    41 1   
     4     2    16 1   
     5     2    17 1   
     6     2    51 1   
     7     2    52 1   
     8     3     4 1   
     9     3    10 1   
    10     3    53 1   
    11     3    54 1   
    12     4    11 2   
    13     4    55 1   
    14     5    12 1   
    15     5    13 1   
    16     5    36 1   
    17     5   101 1   
    18     6    17 1   
    19     6    36 1   
    20     6    43 2   
    21     7    16 1   
    22     7    35 1   
    23     7    56 1   
    24     7    57 1   
    25     8    18 1   
    26     8    19 1   
    27     8    38 1   
    28     8    58 1   
    29     9    19 1   
    30     9    20 1   
    31     9    59 1   
    32     9    60 1   
    33    10    20 1   
    34    10    61 1   
    35    10    62 1   
    36    11    12 1   
    37    11    63 1   
    38    12    13 1   
    39    12    64 1   
    40    13    65 1   
    41    13    66 1   
    42    14    15 1   
    43    14    67 1   
    44    14    68 1   
    45    14    69 1   
    46    15    40 ar  
    47    16    41 1   
    48    16    70 1   
    49    17    35 1   
    50    17    71 1   
    51    18    35 1   
    52    18    42 2   
    53    19    72 1   
    54    19    73 1   
    55    20    74 1   
    56    20    75 1   
    57    21    22 1   
    58    21    23 1   
    59    21    34 1   
    60    21    50 1   
    61    22    23 1   
    62    22    76 1   
    63    22    77 1   
    64    23    78 1   
    65    23    79 1   
    66    24    25 1   
    67    24    26 1   
    68    24    27 1   
    69    24    48 1   
    70    25    80 1   
    71    25    81 1   
    72    25    82 1   
    73    26    83 1   
    74    26    84 1   
    75    26    85 1   
    76    27    86 1   
    77    27    87 1   
    78    27    88 1   
    79    28    29 ar  
    80    28    33 ar  
    81    28    39 ar  
    82    29    30 ar  
    83    29    89 1   
    84    30    31 ar  
    85    30    49 1   
    86    31    32 ar  
    87    31    93 1   
    88    32    33 ar  
    89    32    94 1   
    90    33    40 ar  
    91    34    95 1   
    92    34    96 1   
    93    34    97 1   
    94    36    98 1   
    95    37    50 1   
    96    37    99 1   
    97    37   101 1   
    98    38   100 1   
    99    38   102 1   
   100    44   101 2   
   101    45    50 2   
   102    46    50 2   
   103    47   102 2   
   104    48   102 1   
   105    49   103 1   
   106    90   103 1   
   107    91   103 1   
   108    92   103 1   
@<TRIPOS>SUBSTRUCTURE
     1 9H4         1 TEMP              0 ****  ****    0 ROOT
