@<TRIPOS>MOLECULE
9H5
   40    42     1     0     0
SMALL
abcg2


@<TRIPOS>ATOM
      1 N1          -2.5310    -0.3570     0.2650 na         1 9H5       0.083200
      2 N3           5.9080     0.2970     1.3050 n3         1 9H5      -0.715600
      3 C4          -1.1790    -0.2930    -0.1110 ca         1 9H5       0.099800
      4 C5          -0.4220     0.8410     0.1890 ca         1 9H5       0.082000
      5 C6           0.9160     0.9300    -0.1950 ca         1 9H5       0.217100
      6 C7          -3.0020    -0.8640     1.4470 cc         1 9H5      -0.175500
      7 C8          -4.3660    -0.7630     1.4290 cd         1 9H5      -0.170000
      8 C10         -3.5800     0.0640    -0.5070 cc         1 9H5      -0.175500
      9 C13          6.0210     0.7360    -0.0710 c6         1 9H5       0.143800
     10 C15          3.7560    -0.7410     0.8010 c6         1 9H5       0.099000
     11 C12          5.2840    -0.2140    -1.0000 c6         1 9H5       0.099000
     12 C16          6.6720     1.1370     2.2000 c3         1 9H5       0.153100
     13 C14          4.5190     0.2130     1.7060 c6         1 9H5       0.143800
     14 N2           3.8980    -0.3380    -0.5850 n          1 9H5      -0.396800
     15 O2           3.0410     0.3520    -2.5670 o          1 9H5      -0.587100
     16 C1           1.4920    -0.1440    -0.8750 ca         1 9H5      -0.181600
     17 I2          -1.3220     2.4320     1.2180 i          1 9H5      -0.270000
     18 O1           1.7160     1.9720     0.0390 oh         1 9H5      -0.516100
     19 C2           0.7480    -1.2680    -1.1780 ca         1 9H5       0.003000
     20 C3          -0.5830    -1.3480    -0.7920 ca         1 9H5       0.144000
     21 I1          -1.6870    -3.0650    -1.2600 i          1 9H5      -0.261000
     22 C9          -4.7330    -0.1740     0.1890 cd         1 9H5      -0.170000
     23 H2          -2.3280    -1.2510     2.1930 h4         1 9H5       0.150500
     24 H3          -5.0300    -1.0780     2.2180 ha         1 9H5       0.134500
     25 H4          -3.4130     0.4960    -1.4810 h4         1 9H5       0.150500
     26 H5           5.6280     1.7580    -0.2140 h1         1 9H5       0.042450
     27 H6           7.0760     0.7540    -0.3570 h1         1 9H5       0.042450
     28 H7           4.1550    -1.7530     0.9150 h1         1 9H5       0.062200
     29 H8           2.7080    -0.7710     1.0910 h1         1 9H5       0.062200
     30 H9           5.3320     0.1440    -2.0250 h1         1 9H5       0.062200
     31 H10          5.7510    -1.2030    -0.9660 h1         1 9H5       0.062200
     32 H11          6.6100     0.7500     3.2180 h1         1 9H5       0.032700
     33 H12          7.7220     1.1380     1.9050 h1         1 9H5       0.032700
     34 H13          6.3250     2.1820     2.2160 h1         1 9H5       0.032700
     35 H14          4.4640    -0.1590     2.7310 h1         1 9H5       0.042450
     36 H15          4.0220     1.1980     1.6890 h1         1 9H5       0.042450
     37 H16          1.2870     2.6690     0.5530 ho         1 9H5       0.487000
     38 H17          1.2160    -2.0850    -1.7090 ha         1 9H5       0.146000
     39 H18         -5.7310     0.0470    -0.1530 ha         1 9H5       0.134500
     40 C11          2.8930    -0.0140    -1.4090 c          1 9H5       0.631700
@<TRIPOS>BOND
     1     1     3 1   
     2     1     6 1   
     3     1     8 1   
     4     2     9 1   
     5     2    12 1   
     6     2    13 1   
     7     3     4 ar  
     8     3    20 ar  
     9     4     5 ar  
    10     4    17 1   
    11     5    16 ar  
    12     5    18 1   
    13     6     7 2   
    14     6    23 1   
    15     7    22 1   
    16     7    24 1   
    17     8    22 2   
    18     8    25 1   
    19     9    11 1   
    20     9    26 1   
    21     9    27 1   
    22    10    13 1   
    23    10    14 1   
    24    10    28 1   
    25    10    29 1   
    26    11    14 1   
    27    11    30 1   
    28    11    31 1   
    29    12    32 1   
    30    12    33 1   
    31    12    34 1   
    32    13    35 1   
    33    13    36 1   
    34    14    40 1   
    35    15    40 2   
    36    16    19 ar  
    37    16    40 1   
    38    18    37 1   
    39    19    20 ar  
    40    19    38 1   
    41    20    21 1   
    42    22    39 1   
@<TRIPOS>SUBSTRUCTURE
     1 9H5         1 TEMP              0 ****  ****    0 ROOT
