@<TRIPOS>MOLECULE
9H5
   40    42     1     0     0
SMALL
No Charge or Current Charge


@<TRIPOS>ATOM
      1 N1          -2.6820    -0.4130     0.2000 na         1 9H5       0.083200
      2 N3           6.1380     0.3200     1.3490 n3         1 9H5      -0.715600
      3 C4          -1.3440    -0.3860    -0.1830 ca         1 9H5       0.099800
      4 C5          -0.5280     0.7160     0.1500 ca         1 9H5       0.082000
      5 C6           0.8300     0.7430    -0.2390 ca         1 9H5       0.217100
      6 C7          -3.1190    -0.9390     1.4110 cc         1 9H5      -0.175500
      7 C8          -4.4790    -0.7680     1.3750 cd         1 9H5      -0.170000
      8 C10         -3.7140     0.0800    -0.5920 cc         1 9H5      -0.175500
      9 C13          6.2030     0.8770    -0.0280 c6         1 9H5       0.143800
     10 C15          3.7440    -0.3550     0.9320 c6         1 9H5       0.099000
     11 C12          5.2420     0.1440    -1.0040 c6         1 9H5       0.099000
     12 C16          7.1090     0.9570     2.2650 c3         1 9H5       0.153100
     13 C14          4.7420     0.3960     1.8540 c6         1 9H5       0.143800
     14 N2           3.8360     0.0300    -0.5120 n          1 9H5      -0.396800
     15 O2           3.0880    -0.6840    -2.5610 o          1 9H5      -0.587100
     16 C1           1.3860    -0.3440    -0.9500 ca         1 9H5      -0.181600
     17 I2          -1.3480     2.4170     1.2560 i          1 9H5      -0.270000
     18 O1           1.5810     1.8530     0.0390 oh         1 9H5      -0.516100
     19 C2           0.5530    -1.4250    -1.3080 ca         1 9H5       0.003000
     20 C3          -0.7970    -1.4540    -0.9220 ca         1 9H5       0.144000
     21 I1          -2.0020    -3.1770    -1.4910 i          1 9H5      -0.261000
     22 C9          -4.8410    -0.1470     0.1540 cd         1 9H5      -0.170000
     23 H2          -2.4580    -1.3670     2.1550 h4         1 9H5       0.150500
     24 H3          -5.1680    -1.0640     2.1610 ha         1 9H5       0.134500
     25 H4          -3.5640     0.5260    -1.5680 h4         1 9H5       0.150500
     26 H5           5.9400     1.9450    -0.0150 h1         1 9H5       0.042450
     27 H6           7.2260     0.8040    -0.4230 h1         1 9H5       0.042450
     28 H7           3.9430    -1.4330     1.0120 h1         1 9H5       0.062200
     29 H8           2.7300    -0.1930     1.3180 h1         1 9H5       0.062200
     30 H9           5.2520     0.6750    -1.9660 h1         1 9H5       0.062200
     31 H10          5.6310    -0.8670    -1.1870 h1         1 9H5       0.062200
     32 H11          7.0650     0.4930     3.2590 h1         1 9H5       0.032700
     33 H12          8.1320     0.8450     1.8840 h1         1 9H5       0.032700
     34 H13          6.8990     2.0300     2.3760 h1         1 9H5       0.032700
     35 H14          4.6760    -0.0340     2.8640 h1         1 9H5       0.042450
     36 H15          4.4240     1.4470     1.9310 h1         1 9H5       0.042450
     37 H16          1.0060     2.5030     0.4990 ho         1 9H5       0.487000
     38 H17          0.9560    -2.2600    -1.8770 ha         1 9H5       0.146000
     39 H18         -5.8530     0.1100    -0.1470 ha         1 9H5       0.134500
     40 C11          2.8210    -0.3730    -1.4060 c          1 9H5       0.631700
@<TRIPOS>BOND
     1     1     3 1   
     2     1     6 1   
     3     1     8 1   
     4     2     9 1   
     5     2    12 1   
     6     2    13 1   
     7     3     4 ar  
     8     3    20 ar  
     9     4     5 ar  
    10     4    17 1   
    11     5    16 ar  
    12     5    18 1   
    13     6     7 2   
    14     6    23 1   
    15     7    22 1   
    16     7    24 1   
    17     8    22 2   
    18     8    25 1   
    19     9    11 1   
    20     9    26 1   
    21     9    27 1   
    22    10    13 1   
    23    10    14 1   
    24    10    28 1   
    25    10    29 1   
    26    11    14 1   
    27    11    30 1   
    28    11    31 1   
    29    12    32 1   
    30    12    33 1   
    31    12    34 1   
    32    13    35 1   
    33    13    36 1   
    34    14    40 1   
    35    15    40 2   
    36    16    19 ar  
    37    16    40 1   
    38    18    37 1   
    39    19    20 ar  
    40    19    38 1   
    41    20    21 1   
    42    22    39 1   
@<TRIPOS>SUBSTRUCTURE
     1 9H5         1 TEMP              0 ****  ****    0 ROOT
