@<TRIPOS>MOLECULE
9H6
   51    55     1     0     0
SMALL
bcc


@<TRIPOS>ATOM
      1 C10          2.0340    -0.5200    -0.1950 c5         1 9H6      -0.074700
      2 C11          3.1190    -1.5180    -0.6150 c          1 9H6       0.710500
      3 C14          5.5980    -1.5070    -0.8400 c3         1 9H6       0.092300
      4 C15          4.1930     0.4190    -0.1020 ca         1 9H6       0.063600
      5 C01         -5.4360     0.9900     0.8830 c6         1 9H6      -0.002200
      6 C02         -4.1520     0.2810     0.5590 cc         1 9H6      -0.295400
      7 C03         -3.6060    -0.6200     1.5320 c          1 9H6       0.716700
      8 C06         -1.7950    -0.9960    -0.0360 cc         1 9H6       0.720800
      9 C08          0.0470    -1.3810    -1.5550 c6         1 9H6       0.209300
     10 C09          1.0530    -0.2560    -1.3560 c6         1 9H6      -0.084900
     11 C16          5.1850     1.3600     0.0990 ca         1 9H6      -0.160000
     12 C17          4.7900     2.6240     0.5380 ca         1 9H6      -0.092000
     13 C18          3.4540     2.9220     0.7630 ca         1 9H6      -0.158000
     14 C19          2.4700     1.9540     0.5520 ca         1 9H6      -0.072000
     15 C20          2.8490     0.7020     0.1190 ca         1 9H6      -0.144300
     16 C21          1.2780    -1.0320     1.0480 c6         1 9H6      -0.084900
     17 C22          0.2660    -2.1250     0.7210 c6         1 9H6       0.209300
     18 C24         -3.4800     0.4330    -0.6220 cd         1 9H6       0.227400
     19 C25         -3.9890     1.3520    -1.6950 c6         1 9H6      -0.034200
     20 C26         -5.4420     1.7580    -1.5000 c6         1 9H6      -0.073400
     21 C27         -5.6930     2.1620    -0.0550 c6         1 9H6      -0.076400
     22 N05         -2.4100    -1.2170     1.1540 ns         1 9H6      -0.499400
     23 N07         -0.6530    -1.6720    -0.3120 nh         1 9H6      -0.733600
     24 N13          4.3300    -0.8970    -0.5310 n          1 9H6      -0.374000
     25 N23         -2.3100    -0.1850    -0.9190 nd         1 9H6      -0.729300
     26 O12          2.9530    -2.6700    -0.9640 o          1 9H6      -0.607500
     27 H1           6.0750    -1.0040    -1.6810 h1         1 9H6       0.050367
     28 H2           6.2650    -1.4580     0.0210 h1         1 9H6       0.050367
     29 H3           5.4420    -2.5500    -1.0990 h1         1 9H6       0.050367
     30 H4          -6.2720     0.2840     0.8240 hc         1 9H6       0.053700
     31 H5          -5.4160     1.3370     1.9190 hc         1 9H6       0.053700
     32 H6          -0.6720    -1.1110    -2.3230 h1         1 9H6       0.075950
     33 H7           0.5410    -2.2990    -1.8740 h1         1 9H6       0.075950
     34 H8           0.5060     0.6650    -1.1390 hc         1 9H6       0.062450
     35 H9           1.6050    -0.0800    -2.2830 hc         1 9H6       0.062450
     36 H10          6.2290     1.1360    -0.0760 ha         1 9H6       0.142000
     37 H11          5.5450     3.3810     0.7050 ha         1 9H6       0.134000
     38 H12          3.1710     3.9100     1.1030 ha         1 9H6       0.137000
     39 H13          1.4270     2.1920     0.7260 ha         1 9H6       0.139000
     40 H14          1.9840    -1.3980     1.7980 hc         1 9H6       0.062450
     41 H15          0.7510    -0.1880     1.5010 hc         1 9H6       0.062450
     42 H16          0.7640    -3.0220     0.3540 h1         1 9H6       0.075950
     43 H17         -0.2510    -2.4280     1.6290 h1         1 9H6       0.075950
     44 H18         -3.3480     2.2410    -1.7020 hc         1 9H6       0.061200
     45 H19         -3.8400     0.8720    -2.6650 hc         1 9H6       0.061200
     46 H20         -5.6910     2.5740    -2.1810 hc         1 9H6       0.043700
     47 H21         -6.0960     0.9210    -1.7640 hc         1 9H6       0.043700
     48 H22         -6.7180     2.5180     0.0730 hc         1 9H6       0.041200
     49 H23         -5.0360     2.9970     0.2100 hc         1 9H6       0.041200
     50 H24         -2.0360    -1.8870     1.8100 hn         1 9H6       0.326500
     51 O04         -4.0960    -0.8930     2.6210 o          1 9H6      -0.635500
@<TRIPOS>BOND
     1     1     2 1   
     2     1    10 1   
     3     1    15 1   
     4     1    16 1   
     5     2    24 1   
     6     2    26 2   
     7     3    24 1   
     8     3    27 1   
     9     3    28 1   
    10     3    29 1   
    11     4    11 ar  
    12     4    15 ar  
    13     4    24 1   
    14     5     6 1   
    15     5    21 1   
    16     5    30 1   
    17     5    31 1   
    18     6     7 1   
    19     6    18 2   
    20     7    22 1   
    21     7    51 2   
    22     8    22 1   
    23     8    23 1   
    24     8    25 2   
    25     9    10 1   
    26     9    23 1   
    27     9    32 1   
    28     9    33 1   
    29    10    34 1   
    30    10    35 1   
    31    11    12 ar  
    32    11    36 1   
    33    12    13 ar  
    34    12    37 1   
    35    13    14 ar  
    36    13    38 1   
    37    14    15 ar  
    38    14    39 1   
    39    16    17 1   
    40    16    40 1   
    41    16    41 1   
    42    17    23 1   
    43    17    42 1   
    44    17    43 1   
    45    18    19 1   
    46    18    25 1   
    47    19    20 1   
    48    19    44 1   
    49    19    45 1   
    50    20    21 1   
    51    20    46 1   
    52    20    47 1   
    53    21    48 1   
    54    21    49 1   
    55    22    50 1   
@<TRIPOS>SUBSTRUCTURE
     1 9H6         1 TEMP              0 ****  ****    0 ROOT
