@<TRIPOS>MOLECULE
9H6
   51    55     1     0     0
SMALL
No Charge or Current Charge


@<TRIPOS>ATOM
      1 C10          2.1690    -0.4220    -0.1840 c5         1 9H6      -0.074700
      2 C11          3.1590    -1.6240    -0.4460 c          1 9H6       0.568000
      3 C14          5.6720    -1.8080    -0.6980 c3         1 9H6       0.092300
      4 C15          4.4350     0.3440    -0.1830 ca         1 9H6      -0.029000
      5 C01         -5.7880     0.5070     0.7270 c6         1 9H6      -0.002200
      6 C02         -4.3700     0.0380     0.4240 cc         1 9H6      -0.295400
      7 C03         -3.8870    -1.0770     1.2410 c          1 9H6       0.574200
      8 C06         -1.8960    -0.8780    -0.0330 cc         1 9H6       0.720800
      9 C08          0.1040    -1.2790    -1.4790 c6         1 9H6       0.209300
     10 C09          1.1810    -0.1710    -1.3650 c6         1 9H6      -0.084900
     11 C16          5.5170     1.2150     0.0090 ca         1 9H6      -0.142000
     12 C17          5.2390     2.5670     0.2910 ca         1 9H6      -0.074000
     13 C18          3.9010     3.0090     0.4060 ca         1 9H6      -0.140000
     14 C19          2.8320     2.1010     0.2550 ca         1 9H6      -0.054000
     15 C20          3.1270     0.7570    -0.0310 ca         1 9H6      -0.144300
     16 C21          1.3210    -0.6050     1.1120 c6         1 9H6      -0.084900
     17 C22          0.2440    -1.7110     0.9680 c6         1 9H6       0.209300
     18 C24         -3.5950     0.5980    -0.5860 cd         1 9H6       0.227400
     19 C25         -4.0980     1.7460    -1.4440 c6         1 9H6      -0.034200
     20 C26         -5.6320     1.9190    -1.3770 c6         1 9H6      -0.073400
     21 C27         -6.1060     1.8780     0.0870 c6         1 9H6      -0.076400
     22 N05         -2.6420    -1.4520     0.9270 ns         1 9H6      -0.432400
     23 N07         -0.6430    -1.4170    -0.1950 nh         1 9H6      -0.733600
     24 N13          4.4450    -1.0510    -0.3900 n          1 9H6      -0.214400
     25 N23         -2.3080     0.1060    -0.8130 nd         1 9H6      -0.729300
     26 O12          2.9130    -2.8030    -0.6700 o          1 9H6      -0.532000
     27 H1           6.0720    -1.4780    -1.6650 h1         1 9H6       0.050367
     28 H2           6.4210    -1.6260     0.0820 h1         1 9H6       0.050367
     29 H3           5.4640    -2.8840    -0.7440 h1         1 9H6       0.050367
     30 H4          -6.5090    -0.2350     0.3550 hc         1 9H6       0.053700
     31 H5          -5.9620     0.5780     1.8100 hc         1 9H6       0.053700
     32 H6          -0.5720    -1.0440    -2.3150 h1         1 9H6       0.075950
     33 H7           0.5840    -2.2340    -1.7360 h1         1 9H6       0.075950
     34 H8           0.6780     0.7960    -1.2320 hc         1 9H6       0.062450
     35 H9           1.7380    -0.1000    -2.3090 hc         1 9H6       0.062450
     36 H10          6.5440     0.8640    -0.0640 ha         1 9H6       0.124000
     37 H11          6.0570     3.2720     0.4290 ha         1 9H6       0.116000
     38 H12          3.6950     4.0530     0.6290 ha         1 9H6       0.119000
     39 H13          1.8040     2.4360     0.3680 ha         1 9H6       0.121000
     40 H14          1.9800    -0.8410     1.9590 hc         1 9H6       0.062450
     41 H15          0.8210     0.3390     1.3670 hc         1 9H6       0.062450
     42 H16          0.7320    -2.6870     0.8340 h1         1 9H6       0.075950
     43 H17         -0.3180    -1.7700     1.9110 h1         1 9H6       0.075950
     44 H18         -3.6170     2.6770    -1.1150 hc         1 9H6       0.061200
     45 H19         -3.7950     1.6040    -2.4900 hc         1 9H6       0.061200
     46 H20         -5.9230     2.8690    -1.8460 hc         1 9H6       0.043700
     47 H21         -6.1230     1.1200    -1.9500 hc         1 9H6       0.043700
     48 H22         -7.1860     2.0730     0.1420 hc         1 9H6       0.041200
     49 H23         -5.6140     2.6780     0.6580 hc         1 9H6       0.041200
     50 H24         -2.2620    -2.2350     1.4280 hn         1 9H6       0.326500
     51 O04         -4.5180    -1.6390     2.1220 o          1 9H6      -0.560000
@<TRIPOS>BOND
     1     1     2 1   
     2     1    10 1   
     3     1    15 1   
     4     1    16 1   
     5     2    24 1   
     6     2    26 2   
     7     3    24 1   
     8     3    27 1   
     9     3    28 1   
    10     3    29 1   
    11     4    11 ar  
    12     4    15 ar  
    13     4    24 1   
    14     5     6 1   
    15     5    21 1   
    16     5    30 1   
    17     5    31 1   
    18     6     7 1   
    19     6    18 2   
    20     7    22 1   
    21     7    51 2   
    22     8    22 1   
    23     8    23 1   
    24     8    25 2   
    25     9    10 1   
    26     9    23 1   
    27     9    32 1   
    28     9    33 1   
    29    10    34 1   
    30    10    35 1   
    31    11    12 ar  
    32    11    36 1   
    33    12    13 ar  
    34    12    37 1   
    35    13    14 ar  
    36    13    38 1   
    37    14    15 ar  
    38    14    39 1   
    39    16    17 1   
    40    16    40 1   
    41    16    41 1   
    42    17    23 1   
    43    17    42 1   
    44    17    43 1   
    45    18    19 1   
    46    18    25 1   
    47    19    20 1   
    48    19    44 1   
    49    19    45 1   
    50    20    21 1   
    51    20    46 1   
    52    20    47 1   
    53    21    48 1   
    54    21    49 1   
    55    22    50 1   
@<TRIPOS>SUBSTRUCTURE
     1 9H6         1 TEMP              0 ****  ****    0 ROOT
