@<TRIPOS>MOLECULE
9H8
   25    25     1     0     0
SMALL
No Charge or Current Charge


@<TRIPOS>ATOM
      1 C1           3.3710    -1.2190    -0.2220 c5         1 9H8      -0.099400
      2 C2           3.5990    -0.0050    -1.1520 c5         1 9H8      -0.103400
      3 C3           2.5080     0.9720    -0.6360 c5         1 9H8       0.156500
      4 N1           2.4510     0.7360     0.8500 n7         1 9H8      -0.888400
      5 C4           3.2420    -0.4940     1.1360 c5         1 9H8       0.153800
      6 C5           1.0980     0.7570    -1.2650 c3         1 9H8       0.229800
      7 N2           0.1040     1.3200    -0.3390 n7         1 9H8      -0.917300
      8 S1          -1.3800     0.5600    -0.1620 s6         1 9H8       1.198100
      9 O1          -2.1970     1.4930     0.6210 o          1 9H8      -0.486500
     10 O2          -1.8020     0.1900    -1.5180 o          1 9H8      -0.486500
     11 C6          -1.0320    -0.9680     0.8250 c3         1 9H8       0.088000
     12 F1          -2.1800    -1.6140     1.1440 f          1 9H8      -0.107333
     13 F2          -0.2530    -1.8470     0.1490 f          1 9H8      -0.107333
     14 F3          -0.4000    -0.6710     1.9860 f          1 9H8      -0.107333
     15 H1           2.4620    -1.7760    -0.4740 hc         1 9H8       0.055700
     16 H2           4.2060    -1.9280    -0.2380 hc         1 9H8       0.055700
     17 H3           4.6020     0.4170    -1.0210 hc         1 9H8       0.057200
     18 H4           3.4840    -0.2520    -2.2140 hc         1 9H8       0.057200
     19 H5           2.7920     2.0140    -0.8450 h1         1 9H8       0.065700
     20 H6           2.9040     1.5220     1.3390 hn         1 9H8       0.422000
     21 H8           2.7610    -1.1200     1.9000 h1         1 9H8       0.048200
     22 H9           4.2380    -0.2180     1.5100 h1         1 9H8       0.048200
     23 H10          1.0460     1.2260    -2.2570 h1         1 9H8       0.061700
     24 H11          0.9480    -0.3220    -1.4060 h1         1 9H8       0.061700
     25 H12          0.5350     1.1080     0.5710 hn         1 9H8       0.543000
@<TRIPOS>BOND
     1     1     2 1   
     2     1     5 1   
     3     1    15 1   
     4     1    16 1   
     5     2     3 1   
     6     2    17 1   
     7     2    18 1   
     8     3     4 1   
     9     3     6 1   
    10     3    19 1   
    11     4     5 1   
    12     4    20 1   
    13     5    21 1   
    14     5    22 1   
    15     6     7 1   
    16     6    23 1   
    17     6    24 1   
    18     7     8 1   
    19     7    25 1   
    20     8     9 2   
    21     8    10 2   
    22     8    11 1   
    23    11    12 1   
    24    11    13 1   
    25    11    14 1   
@<TRIPOS>SUBSTRUCTURE
     1 9H8         1 TEMP              0 ****  ****    0 ROOT
