@<TRIPOS>MOLECULE
9H8
   25    25     1     0     0
SMALL
bcc


@<TRIPOS>ATOM
      1 C1           3.8620    -1.0450    -0.1820 c5         1 9H8      -0.099400
      2 C2           3.6220     0.0170    -1.2520 c5         1 9H8      -0.103400
      3 C3           2.5150     0.8660    -0.6290 c5         1 9H8       0.156500
      4 N1           2.7540     0.8380     0.8130 n7         1 9H8      -0.833200
      5 C4           3.6550    -0.2810     1.1310 c5         1 9H8       0.153800
      6 C5           1.1350     0.2740    -0.9410 c3         1 9H8       0.229800
      7 N2           0.1980     0.8750     0.0000 n7         1 9H8      -0.862100
      8 S1          -1.3930     0.7380    -0.0790 s6         1 9H8       1.228900
      9 O1          -1.9890     1.6000     0.9180 o          1 9H8      -0.557300
     10 O2          -1.8210     0.7600    -1.4620 o          1 9H8      -0.557300
     11 C6          -1.7860    -0.9720     0.5010 c3         1 9H8       0.562700
     12 F1          -3.0970    -1.1150     0.6180 f          1 9H8      -0.228633
     13 F2          -1.3280    -1.8650    -0.3650 f          1 9H8      -0.228633
     14 F3          -1.2180    -1.1850     1.6800 f          1 9H8      -0.228633
     15 H1           3.1380    -1.8560    -0.2770 hc         1 9H8       0.055700
     16 H2           4.8530    -1.4930    -0.2420 hc         1 9H8       0.055700
     17 H3           4.5170     0.6270    -1.3930 hc         1 9H8       0.057200
     18 H4           3.3480    -0.4010    -2.2230 hc         1 9H8       0.057200
     19 H5           2.5270     1.8990    -0.9830 h1         1 9H8       0.065700
     20 H6           3.1580     1.7120     1.1150 hn         1 9H8       0.366800
     21 H8           3.2330    -0.9240     1.9060 h1         1 9H8       0.048200
     22 H9           4.6090     0.0940     1.5100 h1         1 9H8       0.048200
     23 H10          0.8490     0.5180    -1.9630 h1         1 9H8       0.061700
     24 H11          1.1550    -0.8150    -0.8430 h1         1 9H8       0.061700
     25 H12          0.6130     1.0180     0.9240 hn         1 9H8       0.487800
@<TRIPOS>BOND
     1     1     2 1   
     2     1     5 1   
     3     1    15 1   
     4     1    16 1   
     5     2     3 1   
     6     2    17 1   
     7     2    18 1   
     8     3     4 1   
     9     3     6 1   
    10     3    19 1   
    11     4     5 1   
    12     4    20 1   
    13     5    21 1   
    14     5    22 1   
    15     6     7 1   
    16     6    23 1   
    17     6    24 1   
    18     7     8 1   
    19     7    25 1   
    20     8     9 2   
    21     8    10 2   
    22     8    11 1   
    23    11    12 1   
    24    11    13 1   
    25    11    14 1   
@<TRIPOS>SUBSTRUCTURE
     1 9H8         1 TEMP              0 ****  ****    0 ROOT
