@<TRIPOS>MOLECULE
9H9
   56    60     1     0     0
SMALL
No Charge or Current Charge


@<TRIPOS>ATOM
      1 C10          1.3130    -0.8140    -0.1610 c5         1 9H9      -0.000700
      2 C11          2.3230     0.0070    -0.9750 ca         1 9H9      -0.216300
      3 C12          2.0940     1.1520    -1.7620 ca         1 9H9       0.244000
      4 C14          3.1680     1.7640    -2.4270 ca         1 9H9      -0.234000
      5 C15          4.4620     1.2330    -2.3050 ca         1 9H9       0.224000
      6 C01         -6.5240     1.0190     0.5510 c6         1 9H9      -0.002200
      7 C02         -5.1370     0.3870     0.5400 cc         1 9H9      -0.292400
      8 C03         -4.5250     0.1850     1.8560 c          1 9H9       0.575200
      9 C06         -2.7050    -0.7290     0.6410 cc         1 9H9       0.722800
     10 C08         -0.8700    -2.1710    -0.2580 c6         1 9H9       0.209800
     11 C09          0.1920    -1.3930    -1.0740 c6         1 9H9      -0.099400
     12 C17          4.6930     0.0950    -1.5220 ca         1 9H9      -0.201000
     13 C18          3.6030    -0.4920    -0.8710 ca         1 9H9       0.340000
     14 C21          5.5450    -1.3440     1.6110 c3         1 9H9       0.155600
     15 C23          2.2490    -1.9500     0.4680 c5         1 9H9       0.186800
     16 C24          0.6230     0.0660     0.9240 c6         1 9H9      -0.099400
     17 C25         -0.4440    -0.7230     1.7220 c6         1 9H9       0.209800
     18 C27         -4.5030    -0.0110    -0.6320 cd         1 9H9       0.228400
     19 C28         -5.1400     0.1860    -1.9980 c6         1 9H9      -0.034200
     20 C29         -6.6600     0.4510    -1.9190 c6         1 9H9      -0.073400
     21 C30         -6.9580     1.5150    -0.8470 c6         1 9H9      -0.076400
     22 F13          0.8560     1.6780    -1.8900 f          1 9H9      -0.173000
     23 F16          5.4920     1.8250    -2.9470 f          1 9H9      -0.175000
     24 N05         -3.3150    -0.3790     1.7870 ns         1 9H9      -0.431400
     25 N07         -1.4620    -1.2970     0.7940 nh         1 9H9      -0.734600
     26 N19          3.5990    -1.6110    -0.0560 nh         1 9H9      -0.771400
     27 N26         -3.2370    -0.5950    -0.5620 nd         1 9H9      -0.727300
     28 O04         -5.0310     0.4800     2.9270 o          1 9H9      -0.560000
     29 O22          4.7470    -1.2290     2.8050 oh         1 9H9      -0.646000
     30 H1           2.9980     2.6470    -3.0360 ha         1 9H9       0.152000
     31 H2          -7.2590     0.2870     0.9130 hc         1 9H9       0.053700
     32 H3          -6.5710     1.8640     1.2520 hc         1 9H9       0.053700
     33 H4          -1.6400    -2.5620    -0.9390 h1         1 9H9       0.064200
     34 H5          -0.4010    -3.0480     0.2110 h1         1 9H9       0.064200
     35 H6          -0.3110    -0.5880    -1.6240 hc         1 9H9       0.064700
     36 H7           0.6310    -2.0550    -1.8320 hc         1 9H9       0.064700
     37 H8           5.6920    -0.3160    -1.4320 ha         1 9H9       0.149000
     38 H9           5.5530    -2.3870    -0.2920 h1         1 9H9       0.043700
     39 H10          4.6040    -3.1820     0.9500 h1         1 9H9       0.043700
     40 H11          6.5060    -1.8180     1.8510 h1         1 9H9       0.025700
     41 H12          5.7630    -0.3490     1.2010 h1         1 9H9       0.025700
     42 H13          2.2310    -1.9270     1.5660 h1         1 9H9       0.055200
     43 H14          1.9430    -2.9540     0.1440 h1         1 9H9       0.055200
     44 H15          1.3780     0.4650     1.6150 hc         1 9H9       0.064700
     45 H16          0.1410     0.9360     0.4610 hc         1 9H9       0.064700
     46 H17          0.0400    -1.5310     2.2900 h1         1 9H9       0.064200
     47 H18         -0.8960    -0.0460     2.4610 h1         1 9H9       0.064200
     48 H19         -4.6540     1.0320    -2.5010 hc         1 9H9       0.061700
     49 H20         -4.9570    -0.6900    -2.6340 hc         1 9H9       0.061700
     50 H21         -7.0340     0.7810    -2.8980 hc         1 9H9       0.043700
     51 H22         -7.1900    -0.4810    -1.6760 hc         1 9H9       0.043700
     52 H23         -8.0300     1.7580    -0.8400 hc         1 9H9       0.042200
     53 H24         -6.4280     2.4460    -1.0920 hc         1 9H9       0.042200
     54 H25         -2.8530    -0.5740     2.6560 hn         1 9H9       0.325500
     55 H26          5.2340    -0.6350     3.4180 ho         1 9H9       0.443000
     56 C20          4.8360    -2.1990     0.5180 c3         1 9H9       0.214800
@<TRIPOS>BOND
     1     1     2 1   
     2     1    11 1   
     3     1    15 1   
     4     1    16 1   
     5     2     3 ar  
     6     2    13 ar  
     7     3     4 ar  
     8     3    22 1   
     9     4     5 ar  
    10     4    30 1   
    11     5    12 ar  
    12     5    23 1   
    13     6     7 1   
    14     6    21 1   
    15     6    31 1   
    16     6    32 1   
    17     7     8 1   
    18     7    18 2   
    19     8    24 1   
    20     8    28 2   
    21     9    24 1   
    22     9    25 1   
    23     9    27 2   
    24    10    11 1   
    25    10    25 1   
    26    10    33 1   
    27    10    34 1   
    28    11    35 1   
    29    11    36 1   
    30    12    13 ar  
    31    12    37 1   
    32    13    26 1   
    33    14    29 1   
    34    14    40 1   
    35    14    41 1   
    36    14    56 1   
    37    15    26 1   
    38    15    42 1   
    39    15    43 1   
    40    16    17 1   
    41    16    44 1   
    42    16    45 1   
    43    17    25 1   
    44    17    46 1   
    45    17    47 1   
    46    18    19 1   
    47    18    27 1   
    48    19    20 1   
    49    19    48 1   
    50    19    49 1   
    51    20    21 1   
    52    20    50 1   
    53    20    51 1   
    54    21    52 1   
    55    21    53 1   
    56    24    54 1   
    57    26    56 1   
    58    29    55 1   
    59    38    56 1   
    60    39    56 1   
@<TRIPOS>SUBSTRUCTURE
     1 9H9         1 TEMP              0 ****  ****    0 ROOT
