@<TRIPOS>MOLECULE
9H9
   56    60     1     0     0
SMALL
abcg2


@<TRIPOS>ATOM
      1 C10          1.1840    -0.3870     0.6890 c5         1 9H9      -0.000700
      2 C11          2.1380     0.5150    -0.0520 ca         1 9H9      -0.216300
      3 C12          1.9300     1.6980    -0.7210 ca         1 9H9       0.244000
      4 C14          2.9450     2.3650    -1.3910 ca         1 9H9      -0.234000
      5 C15          4.1960     1.7800    -1.3610 ca         1 9H9       0.224000
      6 C01         -6.2730     1.2080    -0.4280 c6         1 9H9      -0.002200
      7 C02         -5.0040     0.5580     0.0450 cc         1 9H9      -0.292400
      8 C03         -4.5070     0.8940     1.3470 c          1 9H9       0.575200
      9 C06         -2.6690    -0.6200     0.8870 cc         1 9H9       0.722800
     10 C08         -0.7500    -2.0070     0.4080 c6         1 9H9       0.209800
     11 C09          0.2810    -1.1430    -0.3060 c6         1 9H9      -0.099400
     12 C17          4.4760     0.5890    -0.7190 ca         1 9H9      -0.201000
     13 C18          3.4190    -0.0510    -0.0760 ca         1 9H9       0.340000
     14 C21          5.3570    -2.4150    -0.5170 c3         1 9H9       0.155600
     15 C23          2.1930    -1.3460     1.3740 c5         1 9H9       0.186800
     16 C24          0.3210     0.3400     1.7270 c6         1 9H9      -0.099400
     17 C25         -0.6900    -0.6090     2.3640 c6         1 9H9       0.209800
     18 C27         -4.3020    -0.3560    -0.6910 cd         1 9H9       0.228400
     19 C28         -4.7660    -0.7820    -2.0530 c6         1 9H9      -0.034200
     20 C29         -6.2150    -0.4130    -2.3360 c6         1 9H9      -0.073400
     21 C30         -6.4850     1.0280    -1.9270 c6         1 9H9      -0.076400
     22 F13          0.7000     2.2360    -0.7560 f          1 9H9      -0.173000
     23 F16          5.2040     2.4160    -1.9780 f          1 9H9      -0.175000
     24 N05         -3.3200     0.2580     1.6920 ns         1 9H9      -0.431400
     25 N07         -1.5340    -1.2060     1.3390 nh         1 9H9      -0.734600
     26 N19          3.4610    -1.2290     0.6500 nh         1 9H9      -0.771400
     27 N26         -3.1420    -0.9300    -0.2890 nd         1 9H9      -0.727300
     28 O04         -5.0280     1.6650     2.1450 o          1 9H9      -0.560000
     29 O22          6.2810    -1.9080     0.4170 oh         1 9H9      -0.646000
     30 H1           2.7650     3.3000    -1.9030 ha         1 9H9       0.152000
     31 H2          -7.1270     0.7890     0.1150 hc         1 9H9       0.053700
     32 H3          -6.2580     2.2720    -0.1790 hc         1 9H9       0.053700
     33 H4          -1.4110    -2.4930    -0.3030 h1         1 9H9       0.064200
     34 H5          -0.2640    -2.7950     0.9880 h1         1 9H9       0.064200
     35 H6          -0.2400    -0.4270    -0.9480 hc         1 9H9       0.064700
     36 H7           0.8940    -1.7680    -0.9610 hc         1 9H9       0.064700
     37 H8           5.4900     0.2180    -0.6800 ha         1 9H9       0.149000
     38 H9           3.3060    -2.8880    -0.6600 h1         1 9H9       0.043700
     39 H10          4.0000    -3.1960     0.9240 h1         1 9H9       0.043700
     40 H11          5.6060    -3.4400    -0.8220 h1         1 9H9       0.025700
     41 H12          5.3350    -1.8180    -1.4350 h1         1 9H9       0.025700
     42 H13          2.3410    -1.0550     2.4200 h1         1 9H9       0.055200
     43 H14          1.8520    -2.3820     1.3760 h1         1 9H9       0.055200
     44 H15          0.9550     0.7750     2.5020 hc         1 9H9       0.064700
     45 H16         -0.2270     1.1630     1.2640 hc         1 9H9       0.064700
     46 H17         -0.1880    -1.4220     2.8950 h1         1 9H9       0.064200
     47 H18         -1.2720    -0.0920     3.1260 h1         1 9H9       0.064200
     48 H19         -4.1090    -0.3120    -2.7930 hc         1 9H9       0.061700
     49 H20         -4.6050    -1.8580    -2.1540 hc         1 9H9       0.061700
     50 H21         -6.4320    -0.5640    -3.3950 hc         1 9H9       0.043700
     51 H22         -6.8830    -1.0810    -1.7820 hc         1 9H9       0.043700
     52 H23         -7.5010     1.3240    -2.1930 hc         1 9H9       0.042200
     53 H24         -5.8100     1.6920    -2.4770 hc         1 9H9       0.042200
     54 H25         -2.9760     0.4620     2.6200 hn         1 9H9       0.325500
     55 H26          7.1490    -1.8940     0.0020 ho         1 9H9       0.443000
     56 C20          3.9810    -2.4770     0.1030 c3         1 9H9       0.214800
@<TRIPOS>BOND
     1     1     2 1   
     2     1    11 1   
     3     1    15 1   
     4     1    16 1   
     5     2     3 ar  
     6     2    13 ar  
     7     3     4 ar  
     8     3    22 1   
     9     4     5 ar  
    10     4    30 1   
    11     5    12 ar  
    12     5    23 1   
    13     6     7 1   
    14     6    21 1   
    15     6    31 1   
    16     6    32 1   
    17     7     8 1   
    18     7    18 2   
    19     8    24 1   
    20     8    28 2   
    21     9    24 1   
    22     9    25 1   
    23     9    27 2   
    24    10    11 1   
    25    10    25 1   
    26    10    33 1   
    27    10    34 1   
    28    11    35 1   
    29    11    36 1   
    30    12    13 ar  
    31    12    37 1   
    32    13    26 1   
    33    14    29 1   
    34    14    40 1   
    35    14    41 1   
    36    14    56 1   
    37    15    26 1   
    38    15    42 1   
    39    15    43 1   
    40    16    17 1   
    41    16    44 1   
    42    16    45 1   
    43    17    25 1   
    44    17    46 1   
    45    17    47 1   
    46    18    19 1   
    47    18    27 1   
    48    19    20 1   
    49    19    48 1   
    50    19    49 1   
    51    20    21 1   
    52    20    50 1   
    53    20    51 1   
    54    21    52 1   
    55    21    53 1   
    56    24    54 1   
    57    26    56 1   
    58    29    55 1   
    59    38    56 1   
    60    39    56 1   
@<TRIPOS>SUBSTRUCTURE
     1 9H9         1 TEMP              0 ****  ****    0 ROOT
