@<TRIPOS>MOLECULE
9HA
   89    90     1     0     0
SMALL
No Charge or Current Charge


@<TRIPOS>ATOM
      1 N           -8.0270   -18.5870   -18.1120 ns         1 9HA      -0.486900
      2 C           -7.1150   -24.2810   -20.3520 ca         1 9HA      -0.099000
      3 O           -6.1670   -19.6990   -18.5660 os         1 9HA      -0.460100
      4 C1          -6.9430   -23.3230   -21.3650 ca         1 9HA      -0.119000
      5 C10        -10.3640   -14.3390   -17.1730 c3         1 9HA       0.043700
      6 C11        -11.8580   -13.9180   -17.2910 c          1 9HA       0.586100
      7 C12        -14.4580   -13.7510   -15.5370 c3         1 9HA       0.117000
      8 C13        -15.5160   -14.4060   -16.4490 c3         1 9HA      -0.187400
      9 C14        -16.3310   -15.5100   -15.7830 c          1 9HA       0.610100
     10 C15        -14.1410   -11.3400   -16.1810 c          1 9HA       0.622100
     11 C16        -13.2110   -10.2380   -16.6970 c3         1 9HA      -0.172100
     12 C18        -10.5210   -18.9290   -18.0180 c3         1 9HA       0.164300
     13 C2          -6.3520   -22.0820   -21.0680 ca         1 9HA      -0.080000
     14 C20        -10.4840   -21.4060   -18.4670 c3         1 9HA       0.194000
     15 C21         -9.3620   -21.6920   -17.4350 c3         1 9HA      -0.107767
     16 C22        -10.2740   -22.2720   -19.7270 c3         1 9HA      -0.107767
     17 C23        -11.8900   -21.6570   -17.8670 c3         1 9HA      -0.107767
     18 C24         -9.4230   -13.2450   -17.7530 c3         1 9HA      -0.087400
     19 C25         -7.8890   -13.4720   -17.5660 c6         1 9HA      -0.061700
     20 C26         -7.4610   -13.4250   -16.0690 c6         1 9HA      -0.072400
     21 C27         -5.9370   -13.6460   -15.9070 c6         1 9HA      -0.073400
     22 C28         -5.1300   -12.6170   -16.7340 c6         1 9HA      -0.075400
     23 C29         -5.5480   -12.6510   -18.2240 c6         1 9HA      -0.073400
     24 C3          -5.9260   -21.7930   -19.7560 ca         1 9HA      -0.131300
     25 C30         -7.0730   -12.4320   -18.3830 c6         1 9HA      -0.072400
     26 C4          -6.0950   -22.7610   -18.7460 ca         1 9HA      -0.080000
     27 C5          -6.6910   -23.9990   -19.0420 ca         1 9HA      -0.119000
     28 C6          -5.2860   -20.4460   -19.4250 c3         1 9HA       0.231900
     29 C60        -11.9220   -18.3110   -18.2550 c3         1 9HA      -0.120100
     30 C7          -7.2800   -19.1370   -19.1150 c          1 9HA       0.647100
     31 C8          -9.3500   -17.9380   -18.2900 c3         1 9HA       0.041700
     32 C9          -9.4350   -16.7000   -17.3620 c          1 9HA       0.592100
     33 N1         -10.1510   -15.6320   -17.8640 ns         1 9HA      -0.480900
     34 N2         -12.2470   -12.9120   -16.4130 ns         1 9HA      -0.367500
     35 N3         -13.6770   -12.6850   -16.2140 n          1 9HA      -0.285400
     36 N4         -17.2530   -16.1080   -16.5640 nt         1 9HA      -0.611000
     37 O1          -7.5610   -19.1050   -20.3020 o          1 9HA      -0.534000
     38 O2          -8.9000   -16.6610   -16.2610 o          1 9HA      -0.612100
     39 O3         -12.6230   -14.4240   -18.1050 o          1 9HA      -0.583100
     40 O4         -16.1890   -15.8560   -14.6230 o          1 9HA      -0.613100
     41 O5         -15.2630   -11.0600   -15.7770 o          1 9HA      -0.580100
     42 O6         -10.3740   -20.0350   -18.9420 os         1 9HA      -0.463000
     43 H1          -7.6420   -18.6650   -17.1790 hn         1 9HA       0.335500
     44 H3          -7.2730   -23.5390   -22.3780 ha         1 9HA       0.113500
     45 H4         -10.1620   -14.4630   -16.1020 h1         1 9HA       0.075700
     46 H5         -14.9500   -13.3330   -14.6490 h1         1 9HA       0.075700
     47 H6         -13.7670   -14.5270   -15.1830 h1         1 9HA       0.075700
     48 H7         -15.0850   -14.8160   -17.3680 hc         1 9HA       0.074700
     49 H8         -16.2180   -13.6690   -16.8560 hc         1 9HA       0.074700
     50 H9         -13.7000    -9.2580   -16.7300 hc         1 9HA       0.063367
     51 H10        -12.3130   -10.2070   -16.0710 hc         1 9HA       0.063367
     52 H11        -12.8130   -10.5290   -17.6760 hc         1 9HA       0.063367
     53 H12        -10.4610   -19.2570   -16.9730 h1         1 9HA       0.054700
     54 H13         -6.2310   -21.3440   -21.8580 ha         1 9HA       0.119500
     55 H14         -9.5240   -21.1590   -16.4910 hc         1 9HA       0.042922
     56 H15         -9.3240   -22.7620   -17.2010 hc         1 9HA       0.042922
     57 H16         -8.3840   -21.4040   -17.8320 hc         1 9HA       0.042922
     58 H17        -10.3040   -23.3400   -19.4780 hc         1 9HA       0.042922
     59 H18        -11.0530   -22.0730   -20.4720 hc         1 9HA       0.042922
     60 H19         -9.3010   -22.0570   -20.1850 hc         1 9HA       0.042922
     61 H20        -12.0460   -21.0780   -16.9500 hc         1 9HA       0.042922
     62 H21        -12.6740   -21.3970   -18.5870 hc         1 9HA       0.042922
     63 H22        -12.0120   -22.7170   -17.6100 hc         1 9HA       0.042922
     64 H23         -9.6910   -12.2770   -17.3100 hc         1 9HA       0.058200
     65 H24         -9.6460   -13.1480   -18.8240 hc         1 9HA       0.058200
     66 H25         -7.6610   -14.4700   -17.9670 hc         1 9HA       0.051700
     67 H26         -7.7400   -12.4560   -15.6320 hc         1 9HA       0.038950
     68 H27         -7.9940   -14.1900   -15.4900 hc         1 9HA       0.038950
     69 H28         -5.6760   -14.6650   -16.2260 hc         1 9HA       0.042200
     70 H29         -5.6600   -13.5700   -14.8470 hc         1 9HA       0.042200
     71 H30         -4.0550   -12.8250   -16.6430 hc         1 9HA       0.040700
     72 H31         -5.2890   -11.6080   -16.3280 hc         1 9HA       0.040700
     73 H32         -5.2640   -13.6160   -18.6660 hc         1 9HA       0.042200
     74 H33         -5.0000   -11.8790   -18.7820 hc         1 9HA       0.042200
     75 H34         -7.3330   -11.4140   -18.0600 hc         1 9HA       0.038950
     76 H35         -7.3390   -12.4970   -19.4470 hc         1 9HA       0.038950
     77 H36         -5.7710   -22.5500   -17.7290 ha         1 9HA       0.119500
     78 H37         -6.8240   -24.7400   -18.2570 ha         1 9HA       0.113500
     79 H38         -4.3330   -20.6310   -18.9120 h1         1 9HA       0.066200
     80 H39         -5.0560   -19.8880   -20.3430 h1         1 9HA       0.066200
     81 H40        -12.1290   -17.5180   -17.5270 hc         1 9HA       0.048700
     82 H41        -11.9930   -17.8830   -19.2630 hc         1 9HA       0.048700
     83 H42        -12.7160   -19.0560   -18.1480 hc         1 9HA       0.048700
     84 H43         -9.4320   -17.5880   -19.3260 h1         1 9HA       0.097700
     85 H44        -10.5900   -15.7580   -18.7700 hn         1 9HA       0.335500
     86 H45        -11.5990   -12.6110   -15.6890 hn         1 9HA       0.341500
     87 H46        -17.8240   -16.8460   -16.1780 hn         1 9HA       0.312500
     88 H47        -17.3680   -15.8190   -17.5240 hn         1 9HA       0.312500
     89 H2          -7.5770   -25.2390   -20.5810 ha         1 9HA       0.112000
@<TRIPOS>BOND
     1     1    30 1   
     2     1    31 1   
     3     1    43 1   
     4     2     4 ar  
     5     2    27 ar  
     6     2    89 1   
     7     3    28 1   
     8     3    30 1   
     9     4    13 ar  
    10     4    44 1   
    11     5     6 1   
    12     5    18 1   
    13     5    33 1   
    14     5    45 1   
    15     6    34 1   
    16     6    39 2   
    17     7     8 1   
    18     7    35 1   
    19     7    46 1   
    20     7    47 1   
    21     8     9 1   
    22     8    48 1   
    23     8    49 1   
    24     9    36 1   
    25     9    40 2   
    26    10    11 1   
    27    10    35 1   
    28    10    41 2   
    29    11    50 1   
    30    11    51 1   
    31    11    52 1   
    32    12    29 1   
    33    12    31 1   
    34    12    42 1   
    35    12    53 1   
    36    13    24 ar  
    37    13    54 1   
    38    14    15 1   
    39    14    16 1   
    40    14    17 1   
    41    14    42 1   
    42    15    55 1   
    43    15    56 1   
    44    15    57 1   
    45    16    58 1   
    46    16    59 1   
    47    16    60 1   
    48    17    61 1   
    49    17    62 1   
    50    17    63 1   
    51    18    19 1   
    52    18    64 1   
    53    18    65 1   
    54    19    20 1   
    55    19    25 1   
    56    19    66 1   
    57    20    21 1   
    58    20    67 1   
    59    20    68 1   
    60    21    22 1   
    61    21    69 1   
    62    21    70 1   
    63    22    23 1   
    64    22    71 1   
    65    22    72 1   
    66    23    25 1   
    67    23    73 1   
    68    23    74 1   
    69    24    26 ar  
    70    24    28 1   
    71    25    75 1   
    72    25    76 1   
    73    26    27 ar  
    74    26    77 1   
    75    27    78 1   
    76    28    79 1   
    77    28    80 1   
    78    29    81 1   
    79    29    82 1   
    80    29    83 1   
    81    30    37 2   
    82    31    32 1   
    83    31    84 1   
    84    32    33 1   
    85    32    38 2   
    86    33    85 1   
    87    34    35 1   
    88    34    86 1   
    89    36    87 1   
    90    36    88 1   
@<TRIPOS>SUBSTRUCTURE
     1 9HA         1 TEMP              0 ****  ****    0 ROOT
