@<TRIPOS>MOLECULE
9HA
   89    90     1     0     0
SMALL
bcc


@<TRIPOS>ATOM
      1 N           -8.7170   -18.6720   -17.5060 ns         1 9HA      -0.553900
      2 C           -7.2650   -24.1940   -20.1380 ca         1 9HA      -0.117000
      3 O           -7.0700   -20.1160   -17.2520 os         1 9HA      -0.436900
      4 C1          -6.6010   -23.1310   -20.7340 ca         1 9HA      -0.137000
      5 C10         -9.8760   -14.2150   -17.1870 c3         1 9HA       0.043700
      6 C11        -11.3860   -14.0310   -17.0740 c          1 9HA       0.653100
      7 C12        -13.8150   -14.4390   -14.9090 c3         1 9HA       0.117000
      8 C13        -14.2150   -15.5780   -15.8380 c3         1 9HA      -0.187400
      9 C14        -14.9570   -16.6750   -15.1020 c          1 9HA       0.677100
     10 C15        -13.7600   -12.2550   -16.0670 c          1 9HA       0.689100
     11 C16        -12.9060   -11.2000   -16.7200 c3         1 9HA      -0.172100
     12 C18        -10.9430   -18.6120   -18.5770 c3         1 9HA       0.141100
     13 C2          -6.1810   -22.0520   -19.9650 ca         1 9HA      -0.098000
     14 C20        -11.1080   -21.0260   -18.9770 c3         1 9HA       0.170800
     15 C21        -10.6780   -21.4780   -17.5820 c3         1 9HA      -0.107767
     16 C22        -10.5190   -21.9700   -20.0180 c3         1 9HA      -0.107767
     17 C23        -12.6320   -21.0290   -19.0760 c3         1 9HA      -0.107767
     18 C24         -9.2870   -13.0140   -17.9250 c3         1 9HA      -0.087400
     19 C25         -7.7610   -12.9920   -18.0240 c6         1 9HA      -0.061700
     20 C26         -7.0840   -12.9440   -16.6550 c6         1 9HA      -0.072400
     21 C27         -5.5660   -12.8450   -16.7760 c6         1 9HA      -0.073400
     22 C28         -5.1480   -11.6510   -17.6260 c6         1 9HA      -0.075400
     23 C29         -5.8110   -11.7010   -18.9980 c6         1 9HA      -0.073400
     24 C3          -6.4130   -22.0300   -18.5940 ca         1 9HA      -0.131300
     25 C30         -7.3270   -11.7950   -18.8720 c6         1 9HA      -0.072400
     26 C4          -7.0790   -23.1020   -18.0040 ca         1 9HA      -0.098000
     27 C5          -7.5050   -24.1770   -18.7700 ca         1 9HA      -0.137000
     28 C6          -5.9620   -20.8720   -17.7480 c3         1 9HA       0.208700
     29 C60        -11.8890   -17.7370   -19.3870 c3         1 9HA      -0.120100
     30 C7          -7.6580   -19.2620   -18.0990 c          1 9HA       0.763100
     31 C8          -9.6480   -17.8510   -18.2360 c3         1 9HA       0.041700
     32 C9          -9.9590   -16.6260   -17.3860 c          1 9HA       0.659100
     33 N1          -9.5950   -15.4410   -17.8930 ns         1 9HA      -0.547900
     34 N2         -11.7970   -13.5640   -15.8720 ns         1 9HA      -0.434500
     35 N3         -13.1170   -13.3630   -15.5920 n          1 9HA      -0.352400
     36 N4         -15.7100   -17.4660   -15.8830 nt         1 9HA      -0.678000
     37 O1          -7.2620   -19.0370   -19.2220 o          1 9HA      -0.583000
     38 O2         -10.5000   -16.7360   -16.2940 o          1 9HA      -0.612100
     39 O3         -12.1370   -14.2260   -18.0080 o          1 9HA      -0.583100
     40 O4         -14.8580   -16.8340   -13.8940 o          1 9HA      -0.613100
     41 O5         -14.9660   -12.1400   -15.9500 o          1 9HA      -0.580100
     42 O6         -10.5620   -19.7480   -19.3140 os         1 9HA      -0.416600
     43 H1          -8.9980   -18.9990   -16.5930 hn         1 9HA       0.335500
     44 H3          -6.4100   -23.1380   -21.7990 ha         1 9HA       0.131500
     45 H4          -9.4430   -14.2770   -16.1840 h1         1 9HA       0.075700
     46 H5         -14.6910   -14.0130   -14.4250 h1         1 9HA       0.075700
     47 H6         -13.1600   -14.8030   -14.1180 h1         1 9HA       0.075700
     48 H7         -13.3260   -16.0320   -16.2870 hc         1 9HA       0.074700
     49 H8         -14.8190   -15.2000   -16.6640 hc         1 9HA       0.074700
     50 H9         -13.4940   -10.2900   -16.8210 hc         1 9HA       0.063367
     51 H10        -12.0030   -10.9780   -16.1540 hc         1 9HA       0.063367
     52 H11        -12.6000   -11.5140   -17.7190 hc         1 9HA       0.063367
     53 H12        -11.4300   -18.8880   -17.6340 h1         1 9HA       0.054700
     54 H13         -5.6670   -21.2230   -20.4350 ha         1 9HA       0.137500
     55 H14        -11.0860   -20.8450   -16.7920 hc         1 9HA       0.042922
     56 H15        -11.0410   -22.4900   -17.3970 hc         1 9HA       0.042922
     57 H16         -9.5930   -21.4920   -17.4850 hc         1 9HA       0.042922
     58 H17        -10.8800   -22.9860   -19.8580 hc         1 9HA       0.042922
     59 H18        -10.8030   -21.6700   -21.0280 hc         1 9HA       0.042922
     60 H19         -9.4290   -21.9910   -19.9580 hc         1 9HA       0.042922
     61 H20        -13.0950   -20.3690   -18.3390 hc         1 9HA       0.042922
     62 H21        -12.9670   -20.7230   -20.0690 hc         1 9HA       0.042922
     63 H22        -13.0140   -22.0340   -18.8890 hc         1 9HA       0.042922
     64 H23         -9.6170   -12.1050   -17.4110 hc         1 9HA       0.058200
     65 H24         -9.7190   -12.9750   -18.9300 hc         1 9HA       0.058200
     66 H25         -7.4210   -13.9010   -18.5380 hc         1 9HA       0.051700
     67 H26         -7.4670   -12.0790   -16.1010 hc         1 9HA       0.038950
     68 H27         -7.3430   -13.8280   -16.0660 hc         1 9HA       0.038950
     69 H28         -5.1820   -13.7630   -17.2330 hc         1 9HA       0.042200
     70 H29         -5.1180   -12.7810   -15.7820 hc         1 9HA       0.042200
     71 H30         -4.0610   -11.6200   -17.7290 hc         1 9HA       0.040700
     72 H31         -5.4400   -10.7240   -17.1190 hc         1 9HA       0.040700
     73 H32         -5.4380   -12.5710   -19.5500 hc         1 9HA       0.042200
     74 H33         -5.5380   -10.8210   -19.5850 hc         1 9HA       0.042200
     75 H34         -7.7080   -10.8770   -18.4080 hc         1 9HA       0.038950
     76 H35         -7.7860   -11.8570   -19.8620 hc         1 9HA       0.038950
     77 H36         -7.2610   -23.1000   -16.9350 ha         1 9HA       0.137500
     78 H37         -8.0190   -25.0050   -18.2980 ha         1 9HA       0.131500
     79 H38         -5.4550   -21.2290   -16.8520 h1         1 9HA       0.066200
     80 H39         -5.2660   -20.2320   -18.2930 h1         1 9HA       0.066200
     81 H40        -12.1890   -16.8450   -18.8360 hc         1 9HA       0.048700
     82 H41        -11.4190   -17.4150   -20.3180 hc         1 9HA       0.048700
     83 H42        -12.7980   -18.2810   -19.6380 hc         1 9HA       0.048700
     84 H43         -9.1660   -17.5520   -19.1680 h1         1 9HA       0.097700
     85 H44         -9.2130   -15.3940   -18.8240 hn         1 9HA       0.335500
     86 H45        -11.1470   -13.4530   -15.1060 hn         1 9HA       0.341500
     87 H46        -16.1860   -18.2630   -15.4930 hn         1 9HA       0.312500
     88 H47        -15.7640   -17.3350   -16.8790 hn         1 9HA       0.312500
     89 H2          -7.5940   -25.0330   -20.7370 ha         1 9HA       0.130000
@<TRIPOS>BOND
     1     1    30 1   
     2     1    31 1   
     3     1    43 1   
     4     2     4 ar  
     5     2    27 ar  
     6     2    89 1   
     7     3    28 1   
     8     3    30 1   
     9     4    13 ar  
    10     4    44 1   
    11     5     6 1   
    12     5    18 1   
    13     5    33 1   
    14     5    45 1   
    15     6    34 1   
    16     6    39 2   
    17     7     8 1   
    18     7    35 1   
    19     7    46 1   
    20     7    47 1   
    21     8     9 1   
    22     8    48 1   
    23     8    49 1   
    24     9    36 1   
    25     9    40 2   
    26    10    11 1   
    27    10    35 1   
    28    10    41 2   
    29    11    50 1   
    30    11    51 1   
    31    11    52 1   
    32    12    29 1   
    33    12    31 1   
    34    12    42 1   
    35    12    53 1   
    36    13    24 ar  
    37    13    54 1   
    38    14    15 1   
    39    14    16 1   
    40    14    17 1   
    41    14    42 1   
    42    15    55 1   
    43    15    56 1   
    44    15    57 1   
    45    16    58 1   
    46    16    59 1   
    47    16    60 1   
    48    17    61 1   
    49    17    62 1   
    50    17    63 1   
    51    18    19 1   
    52    18    64 1   
    53    18    65 1   
    54    19    20 1   
    55    19    25 1   
    56    19    66 1   
    57    20    21 1   
    58    20    67 1   
    59    20    68 1   
    60    21    22 1   
    61    21    69 1   
    62    21    70 1   
    63    22    23 1   
    64    22    71 1   
    65    22    72 1   
    66    23    25 1   
    67    23    73 1   
    68    23    74 1   
    69    24    26 ar  
    70    24    28 1   
    71    25    75 1   
    72    25    76 1   
    73    26    27 ar  
    74    26    77 1   
    75    27    78 1   
    76    28    79 1   
    77    28    80 1   
    78    29    81 1   
    79    29    82 1   
    80    29    83 1   
    81    30    37 2   
    82    31    32 1   
    83    31    84 1   
    84    32    33 1   
    85    32    38 2   
    86    33    85 1   
    87    34    35 1   
    88    34    86 1   
    89    36    87 1   
    90    36    88 1   
@<TRIPOS>SUBSTRUCTURE
     1 9HA         1 TEMP              0 ****  ****    0 ROOT
