@<TRIPOS>MOLECULE
9HB
   20    19     1     0     0
SMALL
bcc


@<TRIPOS>ATOM
      1 C10          4.2280     0.1450    -0.0070 c3         1 9HB       0.129200
      2 C01         -4.2590    -0.1010    -0.0230 c3         1 9HB       0.129200
      3 O02         -2.9320    -0.6260     0.0000 os         1 9HB      -0.419900
      4 C03         -1.9290     0.2410    -0.0370 c          1 9HB       0.638600
      5 O04         -2.0840     1.4350    -0.0870 o          1 9HB      -0.538000
      6 C05         -0.5980    -0.4640    -0.0100 c3         1 9HB      -0.132900
      7 C06          0.5670     0.5070    -0.0150 c3         1 9HB      -0.132900
      8 C07          1.8970    -0.1970     0.0170 c          1 9HB       0.638600
      9 O08          2.0530    -1.3910     0.0820 o          1 9HB      -0.538000
     10 O09          2.9000     0.6690    -0.0350 os         1 9HB      -0.419900
     11 H1           4.8890     1.0020    -0.0940 h1         1 9HB       0.049367
     12 H2           4.4310    -0.3750     0.9290 h1         1 9HB       0.049367
     13 H3           4.4070    -0.5340    -0.8410 h1         1 9HB       0.049367
     14 H4          -4.9210    -0.9600     0.0440 h1         1 9HB       0.049367
     15 H5          -4.4410     0.5620     0.8220 h1         1 9HB       0.049367
     16 H6          -4.4590     0.4360    -0.9500 h1         1 9HB       0.049367
     17 H7          -0.5690    -1.1080     0.8720 hc         1 9HB       0.087200
     18 H8          -0.5510    -1.1350    -0.8710 hc         1 9HB       0.087200
     19 H9           0.5390     1.1500    -0.8980 hc         1 9HB       0.087200
     20 H10          0.5180     1.1800     0.8450 hc         1 9HB       0.087200
@<TRIPOS>BOND
     1     1    10 1   
     2     1    11 1   
     3     1    12 1   
     4     1    13 1   
     5     2     3 1   
     6     2    14 1   
     7     2    15 1   
     8     2    16 1   
     9     3     4 1   
    10     4     5 2   
    11     4     6 1   
    12     6     7 1   
    13     6    17 1   
    14     6    18 1   
    15     7     8 1   
    16     7    19 1   
    17     7    20 1   
    18     8     9 2   
    19     8    10 1   
@<TRIPOS>SUBSTRUCTURE
     1 9HB         1 TEMP              0 ****  ****    0 ROOT
