@<TRIPOS>MOLECULE
9HB
   20    19     1     0     0
SMALL
No Charge or Current Charge


@<TRIPOS>ATOM
      1 C10          4.0660     0.0960    -0.2480 c3         1 9HB       0.152400
      2 C01         -4.0970    -0.0520     0.2220 c3         1 9HB       0.152400
      3 O02         -2.7250    -0.4830     0.1620 os         1 9HB      -0.443100
      4 C03         -1.8590     0.2300    -0.6260 c          1 9HB       0.589600
      5 O04         -2.1630     1.2300    -1.2610 o          1 9HB      -0.489000
      6 C05         -0.4380    -0.3330    -0.5600 c3         1 9HB      -0.132900
      7 C06          0.4070     0.3760     0.5350 c3         1 9HB      -0.132900
      8 C07          1.8280    -0.1860     0.6000 c          1 9HB       0.589600
      9 O08          2.1320    -1.1870     1.2350 o          1 9HB      -0.489000
     10 O09          2.6930     0.5270    -0.1880 os         1 9HB      -0.443100
     11 H1           4.6440     0.7540    -0.9090 h1         1 9HB       0.049367
     12 H2           4.5290     0.1220     0.7470 h1         1 9HB       0.049367
     13 H3           4.1390    -0.9280    -0.6390 h1         1 9HB       0.049367
     14 H4          -4.6760    -0.7090     0.8830 h1         1 9HB       0.049367
     15 H5          -4.1700     0.9720     0.6130 h1         1 9HB       0.049367
     16 H6          -4.5600    -0.0780    -0.7730 h1         1 9HB       0.049367
     17 H7          -0.4890    -1.3980    -0.3040 hc         1 9HB       0.087200
     18 H8           0.0460    -0.1940    -1.5340 hc         1 9HB       0.087200
     19 H9           0.4570     1.4410     0.2780 hc         1 9HB       0.087200
     20 H10         -0.0770     0.2370     1.5090 hc         1 9HB       0.087200
@<TRIPOS>BOND
     1     1    10 1   
     2     1    11 1   
     3     1    12 1   
     4     1    13 1   
     5     2     3 1   
     6     2    14 1   
     7     2    15 1   
     8     2    16 1   
     9     3     4 1   
    10     4     5 2   
    11     4     6 1   
    12     6     7 1   
    13     6    17 1   
    14     6    18 1   
    15     7     8 1   
    16     7    19 1   
    17     7    20 1   
    18     8     9 2   
    19     8    10 1   
@<TRIPOS>SUBSTRUCTURE
     1 9HB         1 TEMP              0 ****  ****    0 ROOT
