@<TRIPOS>MOLECULE
9HD
   82    86     1     0     0
SMALL
abcg2


@<TRIPOS>ATOM
      1 C01         -4.6950    -2.3790    -3.1120 c2         1 9HD      -0.301200
      2 C04         -3.8310    -1.4850    -2.6380 c2         1 9HD      -0.074400
      3 N07         -3.4990    -1.7520    -1.3020 n          1 9HD      -0.335000
      4 C08         -4.1540    -2.8650    -0.8610 c          1 9HD       0.559000
      5 C09         -4.9940    -3.3600    -2.0240 c5         1 9HD      -0.131200
      6 O12         -4.0660    -3.3450     0.2530 o          1 9HD      -0.543000
      7 C13         -2.5670    -0.9740    -0.5090 c3         1 9HD       0.123700
      8 C15         -1.1630    -1.0230    -1.1150 c3         1 9HD      -0.105400
      9 C18         -3.0770     0.4520    -0.3190 c3         1 9HD      -0.111400
     10 C21         -4.3500     0.5150     0.5180 c3         1 9HD       0.110000
     11 N24         -4.7610     1.8690     0.7880 n          1 9HD      -0.422800
     12 C25         -5.7570     2.4990     0.1360 c          1 9HD       0.563000
     13 C26         -5.9430     3.8580     0.7770 c5         1 9HD      -0.168400
     14 C29         -4.6690     4.0610     1.5920 c5         1 9HD      -0.091400
     15 C32         -4.1920     2.6360     1.8800 c5         1 9HD       0.099000
     16 C35         -0.0620    -0.5650    -0.1510 c3         1 9HD       0.137700
     17 O37         -6.4050     2.0330    -0.7880 o          1 9HD      -0.549000
     18 C38          1.3160    -0.6720    -0.8030 c3         1 9HD      -0.110400
     19 C41          2.4280    -0.0040     0.0030 c3         1 9HD       0.139700
     20 N43          2.2710     1.4440     0.0950 n          1 9HD      -0.431800
     21 C44          2.2840     2.2940    -0.9530 c          1 9HD       0.563000
     22 C45          2.0860     3.6970    -0.4160 c5         1 9HD      -0.170400
     23 C48          2.4200     3.5680     1.0650 c5         1 9HD      -0.093400
     24 C51          2.0730     2.1130     1.3710 c5         1 9HD       0.100000
     25 O54          2.4160     1.9860    -2.1270 o          1 9HD      -0.544000
     26 C55          3.8130    -0.4000    -0.5100 c3         1 9HD      -0.113400
     27 C58          4.9420     0.2430     0.2890 c3         1 9HD       0.115000
     28 N61          6.2370    -0.2570    -0.1000 n          1 9HD      -0.420800
     29 C62          7.1210     0.4300    -0.8480 c          1 9HD       0.563000
     30 C63          8.3830    -0.4010    -0.9520 c5         1 9HD      -0.168400
     31 C66          7.9430    -1.7950    -0.5180 c5         1 9HD      -0.091400
     32 C69          6.7370    -1.5290     0.3830 c5         1 9HD       0.097000
     33 O72          6.9390     1.5390    -1.3280 o          1 9HD      -0.549000
     34 C73         -0.1200    -2.8940     2.7750 c5         1 9HD      -0.167400
     35 C76          0.0280    -2.5890     1.2980 c          1 9HD       0.565000
     36 O77          0.2710    -3.3990     0.4180 o          1 9HD      -0.548000
     37 N78         -0.1380    -1.2590     1.1290 n          1 9HD      -0.431800
     38 C79         -0.3810    -0.5520     2.3770 c5         1 9HD       0.100000
     39 C82         -0.8180    -1.6600     3.3320 c5         1 9HD      -0.094400
     40 H1          -5.1090    -2.4000    -4.1060 ha         1 9HD       0.209000
     41 H2          -3.3920    -0.6360    -3.1420 h4         1 9HD       0.213000
     42 H3          -6.0500    -3.3850    -1.7380 hc         1 9HD       0.088700
     43 H4          -4.7160    -4.3870    -2.2750 hc         1 9HD       0.088700
     44 H5          -2.5420    -1.4720     0.4630 h1         1 9HD       0.084700
     45 H6          -0.9520    -2.0410    -1.4470 hc         1 9HD       0.068200
     46 H7          -1.1190    -0.3800    -1.9990 hc         1 9HD       0.068200
     47 H8          -2.2950     1.0440     0.1600 hc         1 9HD       0.049700
     48 H9          -3.2540     0.9220    -1.2910 hc         1 9HD       0.049700
     49 H10         -5.1660    -0.0000     0.0110 h1         1 9HD       0.062200
     50 H11         -4.1970     0.0050     1.4740 h1         1 9HD       0.062200
     51 H12         -6.1150     4.6280     0.0260 hc         1 9HD       0.077200
     52 H13         -6.8330     3.8160     1.4120 hc         1 9HD       0.077200
     53 H14         -3.9230     4.5860     0.9940 hc         1 9HD       0.055700
     54 H15         -4.8260     4.6310     2.5050 hc         1 9HD       0.055700
     55 H16         -4.5600     2.2630     2.8410 h1         1 9HD       0.041700
     56 H17         -3.1040     2.5570     1.8910 h1         1 9HD       0.041700
     57 H18         -0.2350     0.4910     0.0800 h1         1 9HD       0.047700
     58 H19          1.5690    -1.7240    -0.9440 hc         1 9HD       0.079200
     59 H20          1.2660    -0.2310    -1.7980 hc         1 9HD       0.079200
     60 H21          2.3570    -0.3640     1.0340 h1         1 9HD       0.044700
     61 H22          2.7040     4.4150    -0.9540 hc         1 9HD       0.077200
     62 H23          1.0400     3.9810    -0.5740 hc         1 9HD       0.077200
     63 H24          3.4870     3.7330     1.2230 hc         1 9HD       0.058200
     64 H25          1.8750     4.2640     1.6980 hc         1 9HD       0.058200
     65 H26          1.0350     2.0140     1.7080 h1         1 9HD       0.039200
     66 H27          2.7120     1.6780     2.1400 h1         1 9HD       0.039200
     67 H28          3.8860    -1.4890    -0.4380 hc         1 9HD       0.065700
     68 H29          3.9210    -0.1460    -1.5650 hc         1 9HD       0.065700
     69 H30          4.9390     1.3250     0.1530 h1         1 9HD       0.052200
     70 H31          4.8040     0.0520     1.3580 h1         1 9HD       0.052200
     71 H32          8.8010    -0.3600    -1.9570 hc         1 9HD       0.076200
     72 H33          9.1280     0.0250    -0.2730 hc         1 9HD       0.076200
     73 H34          7.6310    -2.3740    -1.3890 hc         1 9HD       0.057200
     74 H35          8.7210    -2.3570    -0.0070 hc         1 9HD       0.057200
     75 H36          7.0190    -1.4520     1.4390 h1         1 9HD       0.044200
     76 H37          5.9760    -2.3060     0.3010 h1         1 9HD       0.044200
     77 H39          0.8800    -3.0260     3.1990 hc         1 9HD       0.078200
     78 H40          0.5290    -0.0580     2.7300 h1         1 9HD       0.038700
     79 H41         -1.1430     0.2180     2.2470 h1         1 9HD       0.038700
     80 H42         -1.9010    -1.7870     3.2810 hc         1 9HD       0.059700
     81 H43         -0.5570    -1.4380     4.3650 hc         1 9HD       0.059700
     82 H38         -0.6640    -3.8240     2.9300 hc         1 9HD       0.078200
@<TRIPOS>BOND
     1     1     2 2   
     2     1     5 1   
     3     1    40 1   
     4     2     3 1   
     5     2    41 1   
     6     3     4 1   
     7     3     7 1   
     8     4     5 1   
     9     4     6 2   
    10     5    42 1   
    11     5    43 1   
    12     7     8 1   
    13     7     9 1   
    14     7    44 1   
    15     8    16 1   
    16     8    45 1   
    17     8    46 1   
    18     9    10 1   
    19     9    47 1   
    20     9    48 1   
    21    10    11 1   
    22    10    49 1   
    23    10    50 1   
    24    11    12 1   
    25    11    15 1   
    26    12    13 1   
    27    12    17 2   
    28    13    14 1   
    29    13    51 1   
    30    13    52 1   
    31    14    15 1   
    32    14    53 1   
    33    14    54 1   
    34    15    55 1   
    35    15    56 1   
    36    16    18 1   
    37    16    37 1   
    38    16    57 1   
    39    18    19 1   
    40    18    58 1   
    41    18    59 1   
    42    19    20 1   
    43    19    26 1   
    44    19    60 1   
    45    20    21 1   
    46    20    24 1   
    47    21    22 1   
    48    21    25 2   
    49    22    23 1   
    50    22    61 1   
    51    22    62 1   
    52    23    24 1   
    53    23    63 1   
    54    23    64 1   
    55    24    65 1   
    56    24    66 1   
    57    26    27 1   
    58    26    67 1   
    59    26    68 1   
    60    27    28 1   
    61    27    69 1   
    62    27    70 1   
    63    28    29 1   
    64    28    32 1   
    65    29    30 1   
    66    29    33 2   
    67    30    31 1   
    68    30    71 1   
    69    30    72 1   
    70    31    32 1   
    71    31    73 1   
    72    31    74 1   
    73    32    75 1   
    74    32    76 1   
    75    34    35 1   
    76    34    39 1   
    77    34    77 1   
    78    34    82 1   
    79    35    36 2   
    80    35    37 1   
    81    37    38 1   
    82    38    39 1   
    83    38    78 1   
    84    38    79 1   
    85    39    80 1   
    86    39    81 1   
@<TRIPOS>SUBSTRUCTURE
     1 9HD         1 TEMP              0 ****  ****    0 ROOT
