@<TRIPOS>MOLECULE
9HD
   82    86     1     0     0
SMALL
No Charge or Current Charge


@<TRIPOS>ATOM
      1 C01         -4.8170    -2.4530    -3.0750 c2         1 9HD      -0.301200
      2 C04         -3.8700    -1.6350    -2.6220 c2         1 9HD      -0.074400
      3 N07         -3.5960    -1.8470    -1.2670 n          1 9HD      -0.335000
      4 C08         -4.4040    -2.8590    -0.7150 c          1 9HD       0.559000
      5 C09         -5.2530    -3.3450    -1.9170 c5         1 9HD      -0.131200
      6 O12         -4.4290    -3.2170     0.4550 o          1 9HD      -0.543000
      7 C13         -2.6250    -1.0790    -0.4570 c3         1 9HD       0.123700
      8 C15         -1.1890    -1.2270    -1.0230 c3         1 9HD      -0.105400
      9 C18         -3.0640     0.3990    -0.2980 c3         1 9HD      -0.111400
     10 C21         -4.4440     0.5570     0.3720 c3         1 9HD       0.110000
     11 N24         -4.7950     1.9670     0.6270 n          1 9HD      -0.422800
     12 C25         -5.5880     2.6850    -0.2710 c          1 9HD       0.563000
     13 C26         -5.7040     4.0720     0.3550 c5         1 9HD      -0.168400
     14 C29         -4.3550     4.2230     1.1060 c5         1 9HD      -0.091400
     15 C32         -4.1860     2.7880     1.6950 c5         1 9HD       0.099000
     16 C35         -0.0530    -0.7480    -0.0790 c3         1 9HD       0.137700
     17 O37         -5.8890     2.3150    -1.3970 o          1 9HD      -0.549000
     18 C38          1.3580    -0.8490    -0.7110 c3         1 9HD      -0.110400
     19 C41          2.4740    -0.1540     0.1090 c3         1 9HD       0.139700
     20 N43          2.2010     1.2780     0.3780 n          1 9HD      -0.431800
     21 C44          2.0560     2.2160    -0.6530 c          1 9HD       0.563000
     22 C45          1.7800     3.5290     0.0710 c5         1 9HD      -0.170400
     23 C48          2.5770     3.3650     1.3900 c5         1 9HD      -0.093400
     24 C51          2.2630     1.8760     1.7280 c5         1 9HD       0.100000
     25 O54          2.3180     2.0300    -1.8320 o          1 9HD      -0.544000
     26 C55          3.8970    -0.4180    -0.4390 c3         1 9HD      -0.113400
     27 C58          5.0210     0.1740     0.4380 c3         1 9HD       0.115000
     28 N61          6.3710    -0.1430    -0.0650 n          1 9HD      -0.420800
     29 C62          7.0780     0.7690    -0.8530 c          1 9HD       0.563000
     30 C63          8.4010     0.0670    -1.1440 c5         1 9HD      -0.168400
     31 C66          7.9980    -1.4310    -1.1620 c5         1 9HD      -0.091400
     32 C69          6.9950    -1.4790     0.0310 c5         1 9HD       0.097000
     33 O72          6.6080     1.7780    -1.3580 o          1 9HD      -0.549000
     34 C73         -0.0900    -2.8540     3.0240 c5         1 9HD      -0.167400
     35 C76          0.0800    -2.7010     1.5170 c          1 9HD       0.565000
     36 O77          0.1500    -3.5710     0.6620 o          1 9HD      -0.548000
     37 N78         -0.1210    -1.3340     1.2820 n          1 9HD      -0.431800
     38 C79         -0.5980    -0.5890     2.4670 c5         1 9HD       0.100000
     39 C82         -1.1210    -1.7480     3.3660 c5         1 9HD      -0.094400
     40 H1          -5.2010    -2.4710    -4.0990 ha         1 9HD       0.209000
     41 H2          -3.3270    -0.8600    -3.1680 h4         1 9HD       0.213000
     42 H3          -6.3150    -3.2620    -1.6640 hc         1 9HD       0.088700
     43 H4          -5.0450    -4.4060    -2.0900 hc         1 9HD       0.088700
     44 H5          -2.6170    -1.5200     0.5480 h1         1 9HD       0.084700
     45 H6          -1.0190    -2.2800    -1.2740 hc         1 9HD       0.068200
     46 H7          -1.1200    -0.6770    -1.9690 hc         1 9HD       0.068200
     47 H8          -2.3250     0.9410     0.3010 hc         1 9HD       0.049700
     48 H9          -3.0850     0.8850    -1.2810 hc         1 9HD       0.049700
     49 H10         -5.2170     0.0930    -0.2550 h1         1 9HD       0.062200
     50 H11         -4.4390     0.0250     1.3330 h1         1 9HD       0.062200
     51 H12         -5.9200     4.8410    -0.3930 hc         1 9HD       0.077200
     52 H13         -6.5060     4.0390     1.1000 hc         1 9HD       0.077200
     53 H14         -3.5400     4.4590     0.4110 hc         1 9HD       0.055700
     54 H15         -4.3720     5.0000     1.8790 hc         1 9HD       0.055700
     55 H16         -4.7420     2.6680     2.6340 h1         1 9HD       0.041700
     56 H17         -3.1330     2.5350     1.8750 h1         1 9HD       0.041700
     57 H18         -0.2240     0.3270     0.0530 h1         1 9HD       0.047700
     58 H19          1.6160    -1.9050    -0.8450 hc         1 9HD       0.079200
     59 H20          1.3310    -0.4160    -1.7170 hc         1 9HD       0.079200
     60 H21          2.4580    -0.6440     1.0920 h1         1 9HD       0.044700
     61 H22          2.0460     4.3960    -0.5420 hc         1 9HD       0.077200
     62 H23          0.7130     3.5600     0.3180 hc         1 9HD       0.077200
     63 H24          3.6510     3.5130     1.2240 hc         1 9HD       0.058200
     64 H25          2.2610     4.0560     2.1780 hc         1 9HD       0.058200
     65 H26          1.2950     1.7790     2.2350 h1         1 9HD       0.039200
     66 H27          3.0390     1.4190     2.3570 h1         1 9HD       0.039200
     67 H28          4.0460    -1.5010    -0.5210 hc         1 9HD       0.065700
     68 H29          3.9850    -0.0120    -1.4530 hc         1 9HD       0.065700
     69 H30          4.9040     1.2640     0.5020 h1         1 9HD       0.052200
     70 H31          4.9290    -0.2260     1.4560 h1         1 9HD       0.052200
     71 H32          8.8710     0.4440    -2.0580 hc         1 9HD       0.076200
     72 H33          9.0660     0.2300    -0.2890 hc         1 9HD       0.076200
     73 H34          7.5000    -1.6940    -2.1040 hc         1 9HD       0.057200
     74 H35          8.8470    -2.1120    -1.0320 hc         1 9HD       0.057200
     75 H36          7.5150    -1.5910     0.9920 h1         1 9HD       0.044200
     76 H37          6.2680    -2.2950    -0.0710 h1         1 9HD       0.044200
     77 H39          0.8630    -2.5930     3.4990 hc         1 9HD       0.078200
     78 H40          0.2350    -0.0590     2.9460 h1         1 9HD       0.038700
     79 H41         -1.3850     0.1360     2.2270 h1         1 9HD       0.038700
     80 H42         -2.1350    -2.0470     3.0740 hc         1 9HD       0.059700
     81 H43         -1.1410    -1.4860     4.4300 hc         1 9HD       0.059700
     82 H38         -0.3760    -3.8740     3.3000 hc         1 9HD       0.078200
@<TRIPOS>BOND
     1     1     2 2   
     2     1     5 1   
     3     1    40 1   
     4     2     3 1   
     5     2    41 1   
     6     3     4 1   
     7     3     7 1   
     8     4     5 1   
     9     4     6 2   
    10     5    42 1   
    11     5    43 1   
    12     7     8 1   
    13     7     9 1   
    14     7    44 1   
    15     8    16 1   
    16     8    45 1   
    17     8    46 1   
    18     9    10 1   
    19     9    47 1   
    20     9    48 1   
    21    10    11 1   
    22    10    49 1   
    23    10    50 1   
    24    11    12 1   
    25    11    15 1   
    26    12    13 1   
    27    12    17 2   
    28    13    14 1   
    29    13    51 1   
    30    13    52 1   
    31    14    15 1   
    32    14    53 1   
    33    14    54 1   
    34    15    55 1   
    35    15    56 1   
    36    16    18 1   
    37    16    37 1   
    38    16    57 1   
    39    18    19 1   
    40    18    58 1   
    41    18    59 1   
    42    19    20 1   
    43    19    26 1   
    44    19    60 1   
    45    20    21 1   
    46    20    24 1   
    47    21    22 1   
    48    21    25 2   
    49    22    23 1   
    50    22    61 1   
    51    22    62 1   
    52    23    24 1   
    53    23    63 1   
    54    23    64 1   
    55    24    65 1   
    56    24    66 1   
    57    26    27 1   
    58    26    67 1   
    59    26    68 1   
    60    27    28 1   
    61    27    69 1   
    62    27    70 1   
    63    28    29 1   
    64    28    32 1   
    65    29    30 1   
    66    29    33 2   
    67    30    31 1   
    68    30    71 1   
    69    30    72 1   
    70    31    32 1   
    71    31    73 1   
    72    31    74 1   
    73    32    75 1   
    74    32    76 1   
    75    34    35 1   
    76    34    39 1   
    77    34    77 1   
    78    34    82 1   
    79    35    36 2   
    80    35    37 1   
    81    37    38 1   
    82    38    39 1   
    83    38    78 1   
    84    38    79 1   
    85    39    80 1   
    86    39    81 1   
@<TRIPOS>SUBSTRUCTURE
     1 9HD         1 TEMP              0 ****  ****    0 ROOT
