@<TRIPOS>MOLECULE
9HE
   41    45     1     0     0
SMALL
bcc


@<TRIPOS>ATOM
      1 CAI         -3.6350    -1.4950     1.3700 c5         1 9HE      -0.090900
      2 CAG         -4.5770    -2.6540     0.9790 c5         1 9HE      -0.079400
      3 CAH         -4.9430    -2.4170    -0.4950 c5         1 9HE      -0.079400
      4 CAJ         -3.7550    -1.6420    -1.0510 c5         1 9HE      -0.090900
      5 CAW         -3.4550    -0.6670     0.0850 c5         1 9HE       0.069000
      6 NAX         -2.1670    -0.0170    -0.0150 na         1 9HE       0.020200
      7 NAN         -1.0350    -0.7330    -0.0500 nc         1 9HE      -0.522100
      8 C4          -1.9120     1.3030    -0.0430 ca         1 9HE       0.487800
      9 N3          -2.8040     2.2980    -0.0120 nb         1 9HE      -0.758000
     10 C2          -2.2310     3.4810    -0.0770 ca         1 9HE       0.721900
     11 N1          -0.9360     3.7710    -0.1980 nb         1 9HE      -0.839000
     12 C6          -0.0520     2.7720    -0.2460 ca         1 9HE       0.783200
     13 NAA          1.2360     3.0850    -0.4060 nv         1 9HE      -0.955500
     14 C5          -0.5230     1.4440    -0.1210 ca         1 9HE      -0.513500
     15 CAR         -0.0290     0.1100    -0.1120 cd         1 9HE       0.441500
     16 CAP          1.3520    -0.3770    -0.1480 ca         1 9HE      -0.253200
     17 CAF          2.3370     0.1860     0.6540 ca         1 9HE      -0.042000
     18 CAS          3.6200    -0.3450     0.5830 ca         1 9HE      -0.210100
     19 CAD          4.8780    -0.0870     1.2050 cc         1 9HE      -0.181200
     20 CAB          5.7540    -0.9990     0.6930 cd         1 9HE      -0.103100
     21 NAO          5.1170    -1.8090    -0.2080 na         1 9HE      -0.274100
     22 CAT          3.8140    -1.4370    -0.2970 ca         1 9HE       0.435800
     23 NAM          2.8910    -1.9960    -1.0630 nb         1 9HE      -0.682000
     24 CAE          1.6850    -1.4620    -0.9800 ca         1 9HE       0.452200
     25 H1          -4.0370    -0.8820     2.1780 hc         1 9HE       0.059200
     26 H2          -2.6700    -1.8750     1.7050 hc         1 9HE       0.059200
     27 H3          -4.0610    -3.6080     1.0870 hc         1 9HE       0.045950
     28 H4          -5.4600    -2.6990     1.6160 hc         1 9HE       0.045950
     29 H5          -5.1380    -3.3430    -1.0360 hc         1 9HE       0.045950
     30 H6          -5.8470    -1.8050    -0.5680 hc         1 9HE       0.045950
     31 H7          -2.9030    -2.3090    -1.2030 hc         1 9HE       0.059200
     32 H8          -3.9610    -1.1350    -1.9940 hc         1 9HE       0.059200
     33 H9          -4.1890     0.1400     0.0610 h1         1 9HE       0.086700
     34 H10         -2.8960     4.3380    -0.0380 h5         1 9HE       0.045100
     35 H11          1.4850     4.0430    -0.5840 hn         1 9HE       0.445300
     36 H12          1.9230     2.3840    -0.6230 hn         1 9HE       0.445300
     37 H13          2.1100     0.9990     1.3340 ha         1 9HE       0.147000
     38 H14          5.1050     0.6750     1.9330 ha         1 9HE       0.160000
     39 H15          6.8020    -1.1360     0.9010 h4         1 9HE       0.167000
     40 H16          5.5470    -2.5610    -0.7220 hn         1 9HE       0.312700
     41 H17          0.9190    -1.9020    -1.6090 h4         1 9HE       0.033100
@<TRIPOS>BOND
     1     1     2 1   
     2     1     5 1   
     3     1    25 1   
     4     1    26 1   
     5     2     3 1   
     6     2    27 1   
     7     2    28 1   
     8     3     4 1   
     9     3    29 1   
    10     3    30 1   
    11     4     5 1   
    12     4    31 1   
    13     4    32 1   
    14     5     6 1   
    15     5    33 1   
    16     6     7 1   
    17     6     8 1   
    18     7    15 2   
    19     8     9 ar  
    20     8    14 ar  
    21     9    10 ar  
    22    10    11 ar  
    23    10    34 1   
    24    11    12 ar  
    25    12    13 1   
    26    12    14 ar  
    27    13    35 1   
    28    13    36 1   
    29    14    15 1   
    30    15    16 1   
    31    16    17 ar  
    32    16    24 ar  
    33    17    18 ar  
    34    17    37 1   
    35    18    19 1   
    36    18    22 ar  
    37    19    20 2   
    38    19    38 1   
    39    20    21 1   
    40    20    39 1   
    41    21    22 1   
    42    21    40 1   
    43    22    23 ar  
    44    23    24 ar  
    45    24    41 1   
@<TRIPOS>SUBSTRUCTURE
     1 9HE         1 TEMP              0 ****  ****    0 ROOT
