@<TRIPOS>MOLECULE
9HE
   41    45     1     0     0
SMALL
No Charge or Current Charge


@<TRIPOS>ATOM
      1 CAI         -3.6020    -1.8300     1.3040 c5         1 9HE      -0.090900
      2 CAG         -5.0070    -2.4340     1.0210 c5         1 9HE      -0.079400
      3 CAH         -5.1680    -2.3530    -0.5330 c5         1 9HE      -0.079400
      4 CAJ         -3.8550    -1.6860    -1.0340 c5         1 9HE      -0.090900
      5 CAW         -3.4650    -0.7860     0.1670 c5         1 9HE       0.098300
      6 NAX         -2.1510    -0.1320     0.0630 na         1 9HE      -0.009100
      7 NAN         -0.9740    -0.8790    -0.0800 nc         1 9HE      -0.522100
      8 C4          -1.8800     1.2300     0.0590 ca         1 9HE       0.159500
      9 N3          -2.6940     2.3030     0.1180 nb         1 9HE      -0.232000
     10 C2          -2.0850     3.5070     0.0130 ca         1 9HE       0.195900
     11 N1          -0.7620     3.7290    -0.1750 nb         1 9HE      -0.313000
     12 C6           0.0180     2.6410    -0.2320 ca         1 9HE       0.454900
     13 NAA          1.3190     2.8780    -0.4960 nv         1 9HE      -1.065900
     14 C5          -0.5300     1.3700    -0.0830 ca         1 9HE      -0.382900
     15 CAR          0.0010     0.0320    -0.1340 cd         1 9HE       0.441500
     16 CAP          1.4110    -0.3580    -0.1970 ca         1 9HE      -0.187900
     17 CAF          2.3810     0.2260     0.6430 ca         1 9HE      -0.024000
     18 CAS          3.6800    -0.2780     0.5350 ca         1 9HE      -0.144800
     19 CAD          4.8690     0.1060     1.2330 cc         1 9HE      -0.231200
     20 CAB          5.8840    -0.7120     0.7650 cd         1 9HE      -0.153100
     21 NAO          5.3390    -1.5910    -0.2050 na         1 9HE      -0.324400
     22 CAT          3.9910    -1.3080    -0.3230 ca         1 9HE       0.370500
     23 NAM          3.0720    -1.9040    -1.1030 nb         1 9HE      -0.682000
     24 CAE          1.7980    -1.4370    -1.0230 ca         1 9HE       0.386900
     25 H1          -3.5380    -1.3740     2.2980 hc         1 9HE       0.059200
     26 H2          -2.8200    -2.5980     1.2490 hc         1 9HE       0.059200
     27 H3          -5.0890    -3.4620     1.3930 hc         1 9HE       0.045950
     28 H4          -5.7920    -1.8530     1.5200 hc         1 9HE       0.045950
     29 H5          -5.3150    -3.3410    -0.9840 hc         1 9HE       0.045950
     30 H6          -6.0430    -1.7490    -0.7990 hc         1 9HE       0.045950
     31 H7          -3.0830    -2.4360    -1.2470 hc         1 9HE       0.059200
     32 H8          -4.0060    -1.1100    -1.9540 hc         1 9HE       0.059200
     33 H9          -4.2250    -0.0030     0.2980 h1         1 9HE       0.086700
     34 H10         -2.7270     4.3850     0.0620 h5         1 9HE       0.045100
     35 H11          1.5710     3.8100    -0.8120 hn         1 9HE       0.500500
     36 H12          1.8920     2.1140    -0.8380 hn         1 9HE       0.500500
     37 H13          2.1350     1.0160     1.3490 ha         1 9HE       0.129000
     38 H14          4.9740     0.8860     1.9860 ha         1 9HE       0.210000
     39 H15          6.9370    -0.7350     1.0450 h4         1 9HE       0.217000
     40 H16          5.8300    -2.3080    -0.7260 hn         1 9HE       0.363000
     41 H17          1.0670    -1.9400    -1.6570 h4         1 9HE       0.033100
@<TRIPOS>BOND
     1     1     2 1   
     2     1     5 1   
     3     1    25 1   
     4     1    26 1   
     5     2     3 1   
     6     2    27 1   
     7     2    28 1   
     8     3     4 1   
     9     3    29 1   
    10     3    30 1   
    11     4     5 1   
    12     4    31 1   
    13     4    32 1   
    14     5     6 1   
    15     5    33 1   
    16     6     7 1   
    17     6     8 1   
    18     7    15 2   
    19     8     9 ar  
    20     8    14 ar  
    21     9    10 ar  
    22    10    11 ar  
    23    10    34 1   
    24    11    12 ar  
    25    12    13 1   
    26    12    14 ar  
    27    13    35 1   
    28    13    36 1   
    29    14    15 1   
    30    15    16 1   
    31    16    17 ar  
    32    16    24 ar  
    33    17    18 ar  
    34    17    37 1   
    35    18    19 1   
    36    18    22 ar  
    37    19    20 2   
    38    19    38 1   
    39    20    21 1   
    40    20    39 1   
    41    21    22 1   
    42    21    40 1   
    43    22    23 ar  
    44    23    24 ar  
    45    24    41 1   
@<TRIPOS>SUBSTRUCTURE
     1 9HE         1 TEMP              0 ****  ****    0 ROOT
