@<TRIPOS>MOLECULE
9HF
   51    54     1     0     0
SMALL
abcg2


@<TRIPOS>ATOM
      1 OAZ        -62.6540    15.2690   141.3060 o          1 9HF      -0.718500
      2 CAY        -62.9080    15.4670   140.0900 c          1 9HF       0.708600
      3 OBA        -63.8640    16.1410   139.6310 o          1 9HF      -0.718500
      4 CAX        -61.9620    14.8230   139.0740 ca         1 9HF      -0.161600
      5 CAV        -62.1570    15.0200   137.7190 ca         1 9HF      -0.020000
      6 CAW        -60.8820    14.0230   139.5290 ca         1 9HF      -0.032000
      7 CAU        -59.9940    13.4070   138.6720 ca         1 9HF      -0.173000
      8 CAR        -60.2120    13.6090   137.3060 ca         1 9HF      -0.067200
      9 CAS        -61.2660    14.4050   136.8320 ca         1 9HF      -0.005600
     10 NAN        -61.1990    14.4240   135.4570 nc         1 9HF      -0.228400
     11 NAM        -60.1950    13.7020   135.0810 nd         1 9HF      -0.198400
     12 NAL        -59.5740    13.1910   136.1780 na         1 9HF       0.119800
     13 CAK        -58.4270    12.3510   136.0620 ca         1 9HF       0.032800
     14 CAJ        -57.2500    12.8970   135.5820 ca         1 9HF      -0.092000
     15 CAI        -56.0880    12.1350   135.4460 ca         1 9HF      -0.064300
     16 CAP        -54.8300    12.8100   134.8970 c6         1 9HF       0.000300
     17 CAQ        -55.1520    13.6410   133.6440 c3         1 9HF      -0.082100
     18 CAT        -54.2520    13.7490   135.9750 c3         1 9HF      -0.082100
     19 CAO        -53.7880    11.7510   134.5030 c6         1 9HF      -0.066400
     20 CAH        -53.6290    10.6760   135.5630 c6         1 9HF      -0.065400
     21 CAD        -54.9150     9.8620   135.7750 c6         1 9HF      -0.000700
     22 CAC        -55.1170     8.8760   134.6070 c3         1 9HF      -0.080600
     23 CAA        -54.7510     9.0570   137.0750 c3         1 9HF      -0.080600
     24 CAE        -56.1290    10.7900   135.8510 ca         1 9HF      -0.061300
     25 CAF        -57.3400    10.2630   136.3120 ca         1 9HF      -0.115000
     26 CAG        -58.5100    11.0040   136.4240 ca         1 9HF      -0.062300
     27 CAB        -59.7880    10.3750   136.9020 c3         1 9HF      -0.048800
     28 H2         -62.9750    15.6320   137.3670 ha         1 9HF       0.150000
     29 H3         -60.7690    13.9030   140.5970 ha         1 9HF       0.137000
     30 H4         -59.1750    12.8010   139.0350 ha         1 9HF       0.106000
     31 H5         -57.2490    13.9450   135.3150 ha         1 9HF       0.131000
     32 H6         -55.8010    14.4890   133.8640 hc         1 9HF       0.036200
     33 H7         -54.2250    14.0350   133.2210 hc         1 9HF       0.036200
     34 H8         -55.6380    13.0240   132.8850 hc         1 9HF       0.036200
     35 H9         -53.9840    13.2040   136.8810 hc         1 9HF       0.036200
     36 H10        -53.3580    14.2480   135.5950 hc         1 9HF       0.036200
     37 H11        -54.9810    14.5140   136.2490 hc         1 9HF       0.036200
     38 H12        -54.0890    11.2930   133.5570 hc         1 9HF       0.039200
     39 H13        -52.8340    12.2500   134.3180 hc         1 9HF       0.039200
     40 H14        -52.8220     9.9890   135.2940 hc         1 9HF       0.039200
     41 H15        -53.3400    11.1360   136.5120 hc         1 9HF       0.039200
     42 H16        -56.0210     8.2840   134.7550 hc         1 9HF       0.033867
     43 H17        -55.2110     9.3980   133.6540 hc         1 9HF       0.033867
     44 H18        -54.2660     8.1940   134.5440 hc         1 9HF       0.033867
     45 H19        -54.6850     9.7240   137.9380 hc         1 9HF       0.033867
     46 H20        -55.5740     8.3620   137.2400 hc         1 9HF       0.033867
     47 H21        -53.8290     8.4740   137.0250 hc         1 9HF       0.033867
     48 H22        -57.3850     9.2180   136.5870 ha         1 9HF       0.107000
     49 H23        -60.6440    10.7230   136.3230 hc         1 9HF       0.051367
     50 H24        -59.7300     9.2900   136.8190 hc         1 9HF       0.051367
     51 H25        -59.9870    10.6200   137.9490 hc         1 9HF       0.051367
@<TRIPOS>BOND
     1     1     2 1   
     2     2     3 1   
     3     2     4 1   
     4     4     5 ar  
     5     4     6 ar  
     6     5     9 ar  
     7     5    28 1   
     8     6     7 ar  
     9     6    29 1   
    10     7     8 ar  
    11     7    30 1   
    12     8     9 ar  
    13     8    12 1   
    14     9    10 1   
    15    10    11 2   
    16    11    12 1   
    17    12    13 1   
    18    13    14 ar  
    19    13    26 ar  
    20    14    15 ar  
    21    14    31 1   
    22    15    16 1   
    23    15    24 ar  
    24    16    17 1   
    25    16    18 1   
    26    16    19 1   
    27    17    32 1   
    28    17    33 1   
    29    17    34 1   
    30    18    35 1   
    31    18    36 1   
    32    18    37 1   
    33    19    20 1   
    34    19    38 1   
    35    19    39 1   
    36    20    21 1   
    37    20    40 1   
    38    20    41 1   
    39    21    22 1   
    40    21    23 1   
    41    21    24 1   
    42    22    42 1   
    43    22    43 1   
    44    22    44 1   
    45    23    45 1   
    46    23    46 1   
    47    23    47 1   
    48    24    25 ar  
    49    25    26 ar  
    50    25    48 1   
    51    26    27 1   
    52    27    49 1   
    53    27    50 1   
    54    27    51 1   
@<TRIPOS>SUBSTRUCTURE
     1 9HF         1 TEMP              0 ****  ****    0 ROOT
