@<TRIPOS>MOLECULE
9HF
   51    54     1     0     0
SMALL
No Charge or Current Charge


@<TRIPOS>ATOM
      1 OAZ        -62.1520    15.6760   141.3090 o          1 9HF      -0.718500
      2 CAY        -62.5240    15.7020   140.1450 c          1 9HF       0.708600
      3 OBA        -63.5210    16.3070   139.7790 o          1 9HF      -0.718500
      4 CAX        -61.7130    14.9520   139.1080 ca         1 9HF      -0.161600
      5 CAV        -62.1120    14.9590   137.7430 ca         1 9HF      -0.020000
      6 CAW        -60.5420    14.2320   139.4860 ca         1 9HF      -0.032000
      7 CAU        -59.7840    13.5330   138.5240 ca         1 9HF      -0.173000
      8 CAR        -60.2310    13.5780   137.1990 ca         1 9HF      -0.067200
      9 CAS        -61.3410    14.2550   136.8070 ca         1 9HF      -0.005600
     10 NAN        -61.5330    14.1200   135.4320 nc         1 9HF      -0.228400
     11 NAM        -60.5360    13.3580   134.9700 nd         1 9HF      -0.198400
     12 NAL        -59.7500    13.0270   136.0560 na         1 9HF       0.119800
     13 CAK        -58.5970    12.2470   135.9700 ca         1 9HF       0.032800
     14 CAJ        -57.3950    12.8500   135.5680 ca         1 9HF      -0.092000
     15 CAI        -56.1940    12.1140   135.4650 ca         1 9HF      -0.064300
     16 CAP        -54.9050    12.8460   135.0030 c6         1 9HF       0.000300
     17 CAQ        -55.1710    13.7380   133.7460 c3         1 9HF      -0.082100
     18 CAT        -54.4390    13.7990   136.1490 c3         1 9HF      -0.082100
     19 CAO        -53.7740    11.8450   134.6320 c6         1 9HF      -0.066400
     20 CAH        -53.6290    10.7310   135.6820 c6         1 9HF      -0.065400
     21 CAD        -54.9150     9.8630   135.7860 c6         1 9HF      -0.000700
     22 CAC        -55.0200     8.8910   134.5690 c3         1 9HF      -0.080600
     23 CAA        -54.7800     8.9780   137.0670 c3         1 9HF      -0.080600
     24 CAE        -56.2000    10.7360   135.8300 ca         1 9HF      -0.061300
     25 CAF        -57.4250    10.1370   136.2080 ca         1 9HF      -0.115000
     26 CAG        -58.6190    10.8740   136.2820 ca         1 9HF      -0.062300
     27 CAB        -59.9100    10.1790   136.7070 c3         1 9HF      -0.048800
     28 H2         -62.9990    15.4970   137.4160 ha         1 9HF       0.150000
     29 H3         -60.2190    14.2150   140.5250 ha         1 9HF       0.137000
     30 H4         -58.8890    12.9800   138.8020 ha         1 9HF       0.106000
     31 H5         -57.4050    13.9120   135.3420 ha         1 9HF       0.131000
     32 H6         -55.8310    14.5860   133.9580 hc         1 9HF       0.036200
     33 H7         -54.2370    14.1600   133.3540 hc         1 9HF       0.036200
     34 H8         -55.6300    13.1550   132.9390 hc         1 9HF       0.036200
     35 H9         -54.2790    13.2560   137.0870 hc         1 9HF       0.036200
     36 H10        -53.5010    14.3070   135.8940 hc         1 9HF       0.036200
     37 H11        -55.1850    14.5760   136.3540 hc         1 9HF       0.036200
     38 H12        -53.9720    11.3990   133.6490 hc         1 9HF       0.039200
     39 H13        -52.8180    12.3770   134.5280 hc         1 9HF       0.039200
     40 H14        -52.7660    10.1000   135.4290 hc         1 9HF       0.039200
     41 H15        -53.3940    11.1750   136.6580 hc         1 9HF       0.039200
     42 H16        -55.8670     8.2020   134.6760 hc         1 9HF       0.033867
     43 H17        -55.1690     9.4340   133.6280 hc         1 9HF       0.033867
     44 H18        -54.1150     8.2810   134.4600 hc         1 9HF       0.033867
     45 H19        -54.8360     9.5890   137.9760 hc         1 9HF       0.033867
     46 H20        -55.5580     8.2100   137.1380 hc         1 9HF       0.033867
     47 H21        -53.8180     8.4510   137.0860 hc         1 9HF       0.033867
     48 H22        -57.4590     9.0780   136.4470 ha         1 9HF       0.107000
     49 H23        -60.7030    10.3290   135.9630 hc         1 9HF       0.051367
     50 H24        -59.7740     9.0970   136.8240 hc         1 9HF       0.051367
     51 H25        -60.2710    10.5700   137.6650 hc         1 9HF       0.051367
@<TRIPOS>BOND
     1     1     2 1   
     2     2     3 1   
     3     2     4 1   
     4     4     5 ar  
     5     4     6 ar  
     6     5     9 ar  
     7     5    28 1   
     8     6     7 ar  
     9     6    29 1   
    10     7     8 ar  
    11     7    30 1   
    12     8     9 ar  
    13     8    12 1   
    14     9    10 1   
    15    10    11 2   
    16    11    12 1   
    17    12    13 1   
    18    13    14 ar  
    19    13    26 ar  
    20    14    15 ar  
    21    14    31 1   
    22    15    16 1   
    23    15    24 ar  
    24    16    17 1   
    25    16    18 1   
    26    16    19 1   
    27    17    32 1   
    28    17    33 1   
    29    17    34 1   
    30    18    35 1   
    31    18    36 1   
    32    18    37 1   
    33    19    20 1   
    34    19    38 1   
    35    19    39 1   
    36    20    21 1   
    37    20    40 1   
    38    20    41 1   
    39    21    22 1   
    40    21    23 1   
    41    21    24 1   
    42    22    42 1   
    43    22    43 1   
    44    22    44 1   
    45    23    45 1   
    46    23    46 1   
    47    23    47 1   
    48    24    25 ar  
    49    25    26 ar  
    50    25    48 1   
    51    26    27 1   
    52    27    49 1   
    53    27    50 1   
    54    27    51 1   
@<TRIPOS>SUBSTRUCTURE
     1 9HF         1 TEMP              0 ****  ****    0 ROOT
