@<TRIPOS>MOLECULE
9HG
   62    65     1     0     0
SMALL
abcg2


@<TRIPOS>ATOM
      1 C4          -1.8710     0.4420     0.0330 ca         1 9HG       0.120000
      2 C5          -0.7600     1.2910    -0.0910 ca         1 9HG      -0.224000
      3 C6           0.5080     0.6230    -0.1760 ca         1 9HG       0.441900
      4 C7          -1.6580    -6.0700     0.5530 c5         1 9HG      -0.080900
      5 C8          -1.6740    -4.4880    -1.2320 c5         1 9HG      -0.095400
      6 N1           0.5870    -0.6900    -0.1410 nb         1 9HG      -0.343000
      7 C3          -2.3740    -5.7570    -0.7610 c5         1 9HG      -0.080900
      8 N3          -1.7690    -0.9040     0.0700 nb         1 9HG      -0.298000
      9 C1           0.9480    -3.3080    -0.1220 c3         1 9HG       0.228100
     10 C2          -0.5490    -1.4030    -0.0190 ca         1 9HG       0.437900
     11 CAB         -5.6720     2.2430     0.3200 c3         1 9HG       0.143900
     12 CAC         -1.3870     5.4640    -0.1490 c3         1 9HG       0.145900
     13 CAE         -3.1580     1.0250     0.1250 ca         1 9HG      -0.207000
     14 CAF         -0.9400     2.6910    -0.1310 ca         1 9HG      -0.129000
     15 CAJ         -1.4620    -4.6970     1.2100 c5         1 9HG      -0.095400
     16 CAK         -1.5070    -3.6600     0.0550 c5         1 9HG       0.233500
     17 CAL          3.4740     0.3750     1.0720 c6         1 9HG      -0.093400
     18 CAM          3.9520     1.6580    -1.0120 c6         1 9HG      -0.093400
     19 CAN          4.8900    -0.1750     0.9990 c6         1 9HG       0.169800
     20 CAO          5.3500     1.0620    -0.9990 c6         1 9HG       0.169800
     21 CAW         -3.3230     2.3860     0.0910 ca         1 9HG       0.166100
     22 CAX         -2.1890     3.2430    -0.0390 ca         1 9HG       0.083100
     23 CBB          2.9670     0.7210    -0.3260 c6         1 9HG       0.238500
     24 NAR         -0.3790    -2.7500     0.0240 nh         1 9HG      -0.774300
     25 NAS          1.6480     1.3190    -0.3130 nu         1 9HG      -0.925100
     26 NBC          5.7850     0.7650     0.3520 n3         1 9HG      -0.720600
     27 OAT         -4.4990     3.0200     0.1730 os         1 9HG      -0.319100
     28 OAU         -2.4690     4.5610    -0.0580 os         1 9HG      -0.320100
     29 H2          -0.6890    -6.5270     0.3350 hc         1 9HG       0.042700
     30 H3          -0.6960    -4.7480    -1.6500 hc         1 9HG       0.049450
     31 H4          -2.2210    -3.9400    -2.0000 hc         1 9HG       0.049450
     32 H5          -2.3180    -6.5710    -1.4850 hc         1 9HG       0.042700
     33 H6          -3.4340    -5.5590    -0.5760 hc         1 9HG       0.042700
     34 H7           1.3680    -3.1360    -1.1150 h1         1 9HG       0.036700
     35 H8           1.6430    -2.8900     0.6060 h1         1 9HG       0.036700
     36 H9           0.8990    -4.3830     0.0390 h1         1 9HG       0.036700
     37 H10         -6.5030     2.9420     0.3610 h1         1 9HG       0.043033
     38 H11         -5.8200     1.5670    -0.5260 h1         1 9HG       0.043033
     39 H12         -5.6560     1.6560     1.2420 h1         1 9HG       0.043033
     40 H13         -1.8130     6.4630    -0.1120 h1         1 9HG       0.037700
     41 H14         -0.6870     5.3470     0.6830 h1         1 9HG       0.037700
     42 H15         -0.8370     5.3510    -1.0880 h1         1 9HG       0.037700
     43 H16          7.8120     1.0570    -0.0580 h1         1 9HG       0.030700
     44 H17          7.4750     0.1370     1.4080 h1         1 9HG       0.030700
     45 H18          7.3110    -0.6360    -0.1760 h1         1 9HG       0.030700
     46 H19         -4.0010     0.3540     0.2210 ha         1 9HG       0.137000
     47 H20         -0.0830     3.3430    -0.2320 ha         1 9HG       0.107000
     48 H21         -2.2680    -4.4920     1.9160 hc         1 9HG       0.049450
     49 H22         -0.5330    -4.6410     1.7810 hc         1 9HG       0.049450
     50 H23         -2.3920    -3.0400     0.1780 h1         1 9HG       0.095700
     51 H24          2.8170    -0.3630     1.5360 hc         1 9HG       0.054200
     52 H25          3.4580     1.2730     1.6970 hc         1 9HG       0.054200
     53 H26          3.9680     2.6240    -0.4950 hc         1 9HG       0.054200
     54 H27          3.6430     1.8450    -2.0430 hc         1 9HG       0.054200
     55 H28          5.2600    -0.3760     2.0070 h1         1 9HG       0.032950
     56 H29          4.8730    -1.1470     0.4720 h1         1 9HG       0.032950
     57 H30          5.3650     0.1580    -1.6350 h1         1 9HG       0.032950
     58 H31          6.0510     1.7700    -1.4460 h1         1 9HG       0.032950
     59 H32          2.9060    -0.2040    -0.9060 h1         1 9HG       0.078700
     60 H33          1.6100     2.3210    -0.2280 hn         1 9HG       0.491000
     61 H1          -2.2080    -6.7670     1.1860 hc         1 9HG       0.042700
     62 CAD          7.1540     0.3030     0.3780 c3         1 9HG       0.154100
@<TRIPOS>BOND
     1     1     2 ar  
     2     1     8 ar  
     3     1    13 ar  
     4     2     3 ar  
     5     2    14 ar  
     6     3     6 ar  
     7     3    25 1   
     8     4     7 1   
     9     4    15 1   
    10     4    29 1   
    11     4    61 1   
    12     5     7 1   
    13     5    16 1   
    14     5    30 1   
    15     5    31 1   
    16     6    10 ar  
    17     7    32 1   
    18     7    33 1   
    19     8    10 ar  
    20     9    24 1   
    21     9    34 1   
    22     9    35 1   
    23     9    36 1   
    24    10    24 1   
    25    11    27 1   
    26    11    37 1   
    27    11    38 1   
    28    11    39 1   
    29    12    28 1   
    30    12    40 1   
    31    12    41 1   
    32    12    42 1   
    33    13    21 ar  
    34    13    46 1   
    35    14    22 ar  
    36    14    47 1   
    37    15    16 1   
    38    15    48 1   
    39    15    49 1   
    40    16    24 1   
    41    16    50 1   
    42    17    19 1   
    43    17    23 1   
    44    17    51 1   
    45    17    52 1   
    46    18    20 1   
    47    18    23 1   
    48    18    53 1   
    49    18    54 1   
    50    19    26 1   
    51    19    55 1   
    52    19    56 1   
    53    20    26 1   
    54    20    57 1   
    55    20    58 1   
    56    21    22 ar  
    57    21    27 1   
    58    22    28 1   
    59    23    25 1   
    60    23    59 1   
    61    25    60 1   
    62    26    62 1   
    63    43    62 1   
    64    44    62 1   
    65    45    62 1   
@<TRIPOS>SUBSTRUCTURE
     1 9HG         1 TEMP              0 ****  ****    0 ROOT
