@<TRIPOS>MOLECULE
9HG
   62    65     1     0     0
SMALL
No Charge or Current Charge


@<TRIPOS>ATOM
      1 C4          -1.8920     0.4210    -0.0440 ca         1 9HG       0.120000
      2 C5          -0.7500     1.2330    -0.2170 ca         1 9HG      -0.224000
      3 C6           0.4890     0.5700    -0.3670 ca         1 9HG       0.441900
      4 C7          -1.4630    -6.2020     0.4050 c5         1 9HG      -0.080900
      5 C8          -2.1480    -4.4560    -1.0490 c5         1 9HG      -0.095400
      6 N1           0.5820    -0.7660    -0.3500 nb         1 9HG      -0.343000
      7 C3          -2.6770    -5.7870    -0.4630 c5         1 9HG      -0.080900
      8 N3          -1.7810    -0.9200    -0.0260 nb         1 9HG      -0.298000
      9 C1           0.8280    -3.5080    -0.5940 c3         1 9HG       0.228100
     10 C2          -0.5560    -1.4600    -0.1780 ca         1 9HG       0.437900
     11 CAB         -5.7430     2.2900     0.4290 c3         1 9HG       0.143900
     12 CAC         -1.2190     5.5330    -0.2530 c3         1 9HG       0.145900
     13 CAE         -3.1510     1.0210     0.1110 ca         1 9HG      -0.207000
     14 CAF         -0.8800     2.6430    -0.2320 ca         1 9HG      -0.129000
     15 CAJ         -1.1670    -4.8940     1.1980 c5         1 9HG      -0.095400
     16 CAK         -1.6320    -3.7380     0.2380 c5         1 9HG       0.233500
     17 CAL          3.4050     0.4760     1.0570 c6         1 9HG      -0.093400
     18 CAM          4.0580     1.6790    -1.0670 c6         1 9HG      -0.093400
     19 CAN          4.8610    -0.0240     1.1850 c6         1 9HG       0.169800
     20 CAO          5.4980     1.1470    -0.8880 c6         1 9HG       0.169800
     21 CAW         -3.2920     2.4250     0.0970 ca         1 9HG       0.166100
     22 CAX         -2.1510     3.2420    -0.0750 ca         1 9HG       0.083100
     23 CBB          3.0420     0.7090    -0.4270 c6         1 9HG       0.238500
     24 NAR         -0.4530    -2.8800    -0.1560 nh         1 9HG      -0.774300
     25 NAS          1.6820     1.2710    -0.5450 nu         1 9HG      -0.925100
     26 NBC          5.8190     0.9210     0.5480 n3         1 9HG      -0.720600
     27 OAT         -4.5260     3.0360     0.2480 os         1 9HG      -0.319100
     28 OAU         -2.3170     4.6190    -0.0850 os         1 9HG      -0.320100
     29 H2          -0.6100    -6.4990    -0.2160 hc         1 9HG       0.042700
     30 H3          -1.3620    -4.6440    -1.7900 hc         1 9HG       0.049450
     31 H4          -2.9310    -3.8790    -1.5530 hc         1 9HG       0.049450
     32 H5          -2.9080    -6.5250    -1.2400 hc         1 9HG       0.042700
     33 H6          -3.5840    -5.6420     0.1380 hc         1 9HG       0.042700
     34 H7           1.1490    -3.0970    -1.5610 h1         1 9HG       0.036700
     35 H8           1.6180    -3.3280     0.1470 h1         1 9HG       0.036700
     36 H9           0.7260    -4.5930    -0.7230 h1         1 9HG       0.036700
     37 H10         -6.5960     2.9730     0.5270 h1         1 9HG       0.043033
     38 H11         -5.9300     1.6350    -0.4310 h1         1 9HG       0.043033
     39 H12         -5.6930     1.6760     1.3370 h1         1 9HG       0.043033
     40 H13         -1.5800     6.5690    -0.2280 h1         1 9HG       0.037700
     41 H14         -0.4830     5.4110     0.5520 h1         1 9HG       0.037700
     42 H15         -0.7200     5.3700    -1.2160 h1         1 9HG       0.037700
     43 H16          7.9100     1.2660     0.3290 h1         1 9HG       0.030700
     44 H17          7.4510     0.4220     1.8230 h1         1 9HG       0.030700
     45 H18          7.4320    -0.4480     0.2700 h1         1 9HG       0.030700
     46 H19         -4.0140     0.3750     0.2420 ha         1 9HG       0.137000
     47 H20         -0.0020     3.2640    -0.3640 ha         1 9HG       0.107000
     48 H21         -1.7640    -4.8660     2.1170 hc         1 9HG       0.049450
     49 H22         -0.1230    -4.8290     1.5210 hc         1 9HG       0.049450
     50 H23         -2.4450    -3.1780     0.7250 h1         1 9HG       0.095700
     51 H24          2.7260    -0.2600     1.5060 hc         1 9HG       0.054200
     52 H25          3.2860     1.4070     1.6270 hc         1 9HG       0.054200
     53 H26          3.9780     2.6730    -0.6080 hc         1 9HG       0.054200
     54 H27          3.8410     1.8020    -2.1360 hc         1 9HG       0.054200
     55 H28          5.0990    -0.1450     2.2520 h1         1 9HG       0.032950
     56 H29          4.9420    -1.0180     0.7200 h1         1 9HG       0.032950
     57 H30          5.6090     0.2100    -1.4550 h1         1 9HG       0.032950
     58 H31          6.1990     1.8740    -1.3250 h1         1 9HG       0.032950
     59 H32          3.1100    -0.2500    -0.9660 h1         1 9HG       0.078700
     60 H33          1.5870     2.2820    -0.5560 hn         1 9HG       0.491000
     61 H1          -1.6910    -7.0460     1.0660 hc         1 9HG       0.042700
     62 CAD          7.2270     0.5170     0.7520 c3         1 9HG       0.154100
@<TRIPOS>BOND
     1     1     2 ar  
     2     1     8 ar  
     3     1    13 ar  
     4     2     3 ar  
     5     2    14 ar  
     6     3     6 ar  
     7     3    25 1   
     8     4     7 1   
     9     4    15 1   
    10     4    29 1   
    11     4    61 1   
    12     5     7 1   
    13     5    16 1   
    14     5    30 1   
    15     5    31 1   
    16     6    10 ar  
    17     7    32 1   
    18     7    33 1   
    19     8    10 ar  
    20     9    24 1   
    21     9    34 1   
    22     9    35 1   
    23     9    36 1   
    24    10    24 1   
    25    11    27 1   
    26    11    37 1   
    27    11    38 1   
    28    11    39 1   
    29    12    28 1   
    30    12    40 1   
    31    12    41 1   
    32    12    42 1   
    33    13    21 ar  
    34    13    46 1   
    35    14    22 ar  
    36    14    47 1   
    37    15    16 1   
    38    15    48 1   
    39    15    49 1   
    40    16    24 1   
    41    16    50 1   
    42    17    19 1   
    43    17    23 1   
    44    17    51 1   
    45    17    52 1   
    46    18    20 1   
    47    18    23 1   
    48    18    53 1   
    49    18    54 1   
    50    19    26 1   
    51    19    55 1   
    52    19    56 1   
    53    20    26 1   
    54    20    57 1   
    55    20    58 1   
    56    21    22 ar  
    57    21    27 1   
    58    22    28 1   
    59    23    25 1   
    60    23    59 1   
    61    25    60 1   
    62    26    62 1   
    63    43    62 1   
    64    44    62 1   
    65    45    62 1   
@<TRIPOS>SUBSTRUCTURE
     1 9HG         1 TEMP              0 ****  ****    0 ROOT
