@<TRIPOS>MOLECULE
9HH
   40    43     1     0     0
SMALL
bcc


@<TRIPOS>ATOM
      1 OAX         -3.3380    -2.2800     0.4880 o          1 9HH      -0.599800
      2 SAB         -2.3850    -1.6780     1.4040 s6         1 9HH       1.221900
      3 OAW         -2.4600    -1.9740     2.8250 o          1 9HH      -0.599800
      4 CAA         -0.7470    -2.0590     0.8300 c3         1 9HH      -0.266300
      5 NAC         -2.5550    -0.0270     1.2850 nu         1 9HH      -0.686500
      6 CAD         -2.5960     0.5940     0.0100 ca         1 9HH       0.113600
      7 CAI         -1.4930     1.2980    -0.4930 cp         1 9HH      -0.060000
      8 CAH         -1.5950     1.8880    -1.7510 ca         1 9HH      -0.120000
      9 CAG         -2.7560     1.7790    -2.5010 ca         1 9HH      -0.127000
     10 CAF         -3.8430     1.0830    -1.9910 ca         1 9HH      -0.115000
     11 CAE         -3.7660     0.5010    -0.7360 ca         1 9HH      -0.096000
     12 CAJ         -0.2310     1.4050     0.2710 cp         1 9HH      -0.096000
     13 CAK         -0.1430     2.0710     1.4880 ca         1 9HH      -0.097000
     14 CAL          1.0520     2.1440     2.2090 ca         1 9HH      -0.166000
     15 CAM          2.2050     1.5470     1.7300 ca         1 9HH      -0.061000
     16 CAN          2.1550     0.8780     0.5100 cp         1 9HH      -0.086000
     17 CAV          0.9430     0.8190    -0.2070 ca         1 9HH       0.007800
     18 CAO          3.1260     0.1520    -0.2690 cp         1 9HH      -0.090000
     19 CAT          2.4520    -0.3120    -1.4160 ca         1 9HH      -0.003200
     20 NAU          1.1430     0.0980    -1.3550 na         1 9HH      -0.184300
     21 CAP          4.4770    -0.1400    -0.0980 ca         1 9HH      -0.067000
     22 CAQ          5.1280    -0.8830    -1.0660 ca         1 9HH      -0.162000
     23 CAR          4.4420    -1.3360    -2.2010 ca         1 9HH      -0.094000
     24 CAS          3.1000    -1.0590    -2.3940 ca         1 9HH      -0.159000
     25 H1          -0.6460    -1.7530    -0.2080 h1         1 9HH       0.103700
     26 H2          -0.0170    -1.5480     1.4530 h1         1 9HH       0.103700
     27 H3          -0.6120    -3.1370     0.9070 h1         1 9HH       0.103700
     28 H4          -2.0030     0.4510     1.9890 hn         1 9HH       0.439800
     29 H5          -0.7530     2.4460    -2.1420 ha         1 9HH       0.140000
     30 H6          -2.8150     2.2460    -3.4750 ha         1 9HH       0.138000
     31 H7          -4.7580     1.0060    -2.5630 ha         1 9HH       0.142000
     32 H8          -4.6190    -0.0190    -0.3240 ha         1 9HH       0.162000
     33 H9          -1.0240     2.5660     1.8820 ha         1 9HH       0.138000
     34 H10          1.0700     2.6770     3.1500 ha         1 9HH       0.139000
     35 H11          3.1270     1.6030     2.2940 ha         1 9HH       0.139000
     36 H12          0.4510    -0.0720    -2.0650 hn         1 9HH       0.307700
     37 H13          5.0110     0.2100     0.7770 ha         1 9HH       0.135000
     38 H14          6.1780    -1.1200    -0.9490 ha         1 9HH       0.134000
     39 H15          4.9730    -1.9160    -2.9450 ha         1 9HH       0.132000
     40 H16          2.5770    -1.4140    -3.2730 ha         1 9HH       0.137000
@<TRIPOS>BOND
     1     1     2 2   
     2     2     3 2   
     3     2     4 1   
     4     2     5 1   
     5     4    25 1   
     6     4    26 1   
     7     4    27 1   
     8     5     6 1   
     9     5    28 1   
    10     6     7 ar  
    11     6    11 ar  
    12     7     8 ar  
    13     7    12 1   
    14     8     9 ar  
    15     8    29 1   
    16     9    10 ar  
    17     9    30 1   
    18    10    11 ar  
    19    10    31 1   
    20    11    32 1   
    21    12    13 ar  
    22    12    17 ar  
    23    13    14 ar  
    24    13    33 1   
    25    14    15 ar  
    26    14    34 1   
    27    15    16 ar  
    28    15    35 1   
    29    16    17 ar  
    30    16    18 1   
    31    17    20 1   
    32    18    19 ar  
    33    18    21 ar  
    34    19    20 1   
    35    19    24 ar  
    36    20    36 1   
    37    21    22 ar  
    38    21    37 1   
    39    22    23 ar  
    40    22    38 1   
    41    23    24 ar  
    42    23    39 1   
    43    24    40 1   
@<TRIPOS>SUBSTRUCTURE
     1 9HH         1 TEMP              0 ****  ****    0 ROOT
