@<TRIPOS>MOLECULE
9HH
   40    43     1     0     0
SMALL
No Charge or Current Charge


@<TRIPOS>ATOM
      1 OAX         -3.7730    -2.1640     1.1000 o          1 9HH      -0.529000
      2 SAB         -2.4680    -1.6770     1.5500 s6         1 9HH       1.191100
      3 OAW         -2.0460    -1.8410     2.9410 o          1 9HH      -0.529000
      4 CAA         -1.1940    -2.3160     0.4830 c3         1 9HH      -0.377100
      5 NAC         -2.4490    -0.0420     1.2870 nu         1 9HH      -0.880100
      6 CAD         -2.5610     0.5690     0.0400 ca         1 9HH       0.252000
      7 CAI         -1.4680     1.3150    -0.4770 cp         1 9HH      -0.060000
      8 CAH         -1.5860     1.8950    -1.7620 ca         1 9HH      -0.102000
      9 CAG         -2.7650     1.7560    -2.5110 ca         1 9HH      -0.109000
     10 CAF         -3.8460     1.0310    -1.9860 ca         1 9HH      -0.097000
     11 CAE         -3.7430     0.4390    -0.7150 ca         1 9HH      -0.078000
     12 CAJ         -0.1970     1.4630     0.2920 cp         1 9HH      -0.096000
     13 CAK         -0.1180     2.1640     1.5280 ca         1 9HH      -0.079000
     14 CAL          1.1060     2.2650     2.2470 ca         1 9HH      -0.148000
     15 CAM          2.2960     1.6660     1.7610 ca         1 9HH      -0.043000
     16 CAN          2.2300     0.9740     0.5390 cp         1 9HH      -0.086000
     17 CAV          1.0220     0.9110    -0.1270 ca         1 9HH       0.007800
     18 CAO          3.1980     0.2240    -0.2530 cp         1 9HH      -0.090000
     19 CAT          2.5410    -0.2830    -1.3790 ca         1 9HH      -0.003200
     20 NAU          1.2060     0.1460    -1.2840 na         1 9HH      -0.234600
     21 CAP          4.5670    -0.0400    -0.0580 ca         1 9HH      -0.049000
     22 CAQ          5.2420    -0.8190    -1.0240 ca         1 9HH      -0.144000
     23 CAR          4.5580    -1.3240    -2.1600 ca         1 9HH      -0.076000
     24 CAS          3.1840    -1.0570    -2.3500 ca         1 9HH      -0.141000
     25 H1          -1.4760    -2.0790    -0.5470 h1         1 9HH       0.103700
     26 H2          -0.2520    -1.8320     0.7600 h1         1 9HH       0.103700
     27 H3          -1.1470    -3.3980     0.6420 h1         1 9HH       0.103700
     28 H4          -1.6230     0.2360     1.8000 hn         1 9HH       0.495000
     29 H5          -0.7540     2.4630    -2.1730 ha         1 9HH       0.122000
     30 H6          -2.8430     2.2130    -3.4960 ha         1 9HH       0.120000
     31 H7          -4.7630     0.9250    -2.5620 ha         1 9HH       0.124000
     32 H8          -4.5860    -0.1160    -0.3140 ha         1 9HH       0.144000
     33 H9          -1.0120     2.6370     1.9310 ha         1 9HH       0.120000
     34 H10          1.1300     2.8080     3.1890 ha         1 9HH       0.121000
     35 H11          3.2290     1.7360     2.3160 ha         1 9HH       0.121000
     36 H12          0.4800    -0.0630    -1.9580 hn         1 9HH       0.358000
     37 H13          5.0900     0.3470     0.8140 ha         1 9HH       0.117000
     38 H14          6.3000    -1.0360    -0.8950 ha         1 9HH       0.116000
     39 H15          5.0960    -1.9220    -2.8920 ha         1 9HH       0.114000
     40 H16          2.6480    -1.4390    -3.2160 ha         1 9HH       0.119000
@<TRIPOS>BOND
     1     1     2 2   
     2     2     3 2   
     3     2     4 1   
     4     2     5 1   
     5     4    25 1   
     6     4    26 1   
     7     4    27 1   
     8     5     6 1   
     9     5    28 1   
    10     6     7 ar  
    11     6    11 ar  
    12     7     8 ar  
    13     7    12 1   
    14     8     9 ar  
    15     8    29 1   
    16     9    10 ar  
    17     9    30 1   
    18    10    11 ar  
    19    10    31 1   
    20    11    32 1   
    21    12    13 ar  
    22    12    17 ar  
    23    13    14 ar  
    24    13    33 1   
    25    14    15 ar  
    26    14    34 1   
    27    15    16 ar  
    28    15    35 1   
    29    16    17 ar  
    30    16    18 1   
    31    17    20 1   
    32    18    19 ar  
    33    18    21 ar  
    34    19    20 1   
    35    19    24 ar  
    36    20    36 1   
    37    21    22 ar  
    38    21    37 1   
    39    22    23 ar  
    40    22    38 1   
    41    23    24 ar  
    42    23    39 1   
    43    24    40 1   
@<TRIPOS>SUBSTRUCTURE
     1 9HH         1 TEMP              0 ****  ****    0 ROOT
