@<TRIPOS>MOLECULE
9HI
   80    83     1     0     0
SMALL
bcc


@<TRIPOS>ATOM
      1 N1          -0.5900     0.8160     0.2570 na         1 9HI      -0.017100
      2 N3           4.7870     2.3140    -4.4060 nt         1 9HI      -0.671000
      3 C5           0.1170    -0.3040    -0.1050 cc         1 9HI      -0.058300
      4 C6          -0.6040     2.6780     1.9120 c3         1 9HI      -0.012400
      5 C7          -1.9100     1.1330    -0.2730 c3         1 9HI       0.026300
      6 C8          -3.0110     0.3850     0.4670 c3         1 9HI      -0.137400
      7 C10         -5.4720    -0.0400     0.7170 c3         1 9HI      -0.148400
      8 C13         -0.1140     4.0020     1.3230 c3         1 9HI      -0.093100
      9 C15         -1.0260    -3.4880    -1.7410 ca         1 9HI      -0.172000
     10 C17          5.3650     0.3640    -0.0550 ca         1 9HI      -0.190000
     11 C20          5.7940     0.6070    -1.3420 ca         1 9HI      -0.055500
     12 C21         -0.4250    -0.8760    -2.4760 ca         1 9HI      -0.084000
     13 C22          3.7640    -2.8090    -0.7050 ca         1 9HI      -0.172500
     14 C24         -0.8270    -1.7830    -3.4450 ca         1 9HI      -0.172000
     15 C26          3.6430     2.0230    -0.3110 ca         1 9HI      -0.190000
     16 C28          4.0770    -3.5140     0.4390 ca         1 9HI       0.132900
     17 O5           6.7820     1.4250    -3.8570 o          1 9HI      -0.613100
     18 C29          5.1420     1.5370    -2.1510 ca         1 9HI      -0.195600
     19 C23          4.0710     2.2410    -1.6100 ca         1 9HI      -0.055500
     20 C32          4.2800     1.0650     0.4760 ca         1 9HI       0.221600
     21 S1           2.5180     1.2560     2.5560 sy         1 9HI       1.370200
     22 O1           2.5190     0.5020     3.8000 o          1 9HI      -0.617300
     23 O2           2.5640     2.7070     2.6300 o          1 9HI      -0.617300
     24 C2           1.2090     0.7750     1.5170 cd         1 9HI      -0.387500
     25 C1           1.2440    -0.3750     0.6700 cd         1 9HI      -0.022000
     26 C31          2.2420    -1.4500     0.5990 ca         1 9HI      -0.043000
     27 C25          2.8480    -1.7720    -0.6140 ca         1 9HI      -0.092000
     28 C16          2.5780    -2.1920     1.7310 ca         1 9HI      -0.092000
     29 C19          3.5010    -3.2250     1.6620 ca         1 9HI      -0.172500
     30 C12          0.0390     1.4810     1.2620 cc         1 9HI       0.051400
     31 C14         -0.5320     2.6570     3.4400 c3         1 9HI      -0.093100
     32 C27         -0.3310    -1.2500    -1.1360 ca         1 9HI      -0.042000
     33 C30         -1.1200    -3.0760    -3.0560 ca         1 9HI       0.143900
     34 C18         -0.6330    -2.5650    -0.7850 ca         1 9HI      -0.084000
     35 F1          -1.5070    -3.9610    -3.9870 f          1 9HI      -0.141900
     36 C9          -4.4090     0.8200     0.0340 c3         1 9HI       0.149100
     37 O4          -4.5340     0.8140    -1.3770 oh         1 9HI      -0.593800
     38 C11         -6.8530     0.6010     0.8420 c3         1 9HI       0.164100
     39 O3          -7.3010     1.1810    -0.3690 oh         1 9HI      -0.576800
     40 C35         -7.8710    -0.3950     1.3790 c3         1 9HI      -0.234400
     41 C36         -9.2540     0.2200     1.6530 c          1 9HI       0.937600
     42 O6          -9.2700     1.3330     2.2170 o          1 9HI      -0.839300
     43 O7         -10.2510    -0.4540     1.3220 o          1 9HI      -0.839300
     44 HN3          5.0670     2.4430    -5.3640 hn         1 9HI       0.310500
     45 HN3A         3.8080     2.4230    -4.2050 hn         1 9HI       0.310500
     46 H6          -1.6700     2.6080     1.6850 hc         1 9HI       0.058700
     47 H7          -2.0590     2.2110    -0.2240 h1         1 9HI       0.073200
     48 H7A         -1.9180     0.8830    -1.3300 h1         1 9HI       0.073200
     49 H8          -2.8880    -0.6930     0.3120 hc         1 9HI       0.056200
     50 H8A         -2.9110     0.5550     1.5430 hc         1 9HI       0.056200
     51 H10         -5.5430    -0.9980     0.1830 hc         1 9HI       0.039200
     52 H10A        -5.1350    -0.2950     1.7250 hc         1 9HI       0.039200
     53 H13         -0.2650     4.0380     0.2430 hc         1 9HI       0.048867
     54 H13A        -0.6690     4.8310     1.7650 hc         1 9HI       0.048867
     55 H13B         0.9430     4.1570     1.5240 hc         1 9HI       0.048867
     56 H15         -1.2610    -4.5080    -1.4660 ha         1 9HI       0.153500
     57 H17          5.8650    -0.3840     0.5470 ha         1 9HI       0.145500
     58 H20          6.6370     0.0510    -1.7290 ha         1 9HI       0.140000
     59 H21         -0.1670     0.1320    -2.7760 ha         1 9HI       0.142500
     60 H22          4.2360    -3.0510    -1.6480 ha         1 9HI       0.152500
     61 H24         -0.8980    -1.4910    -4.4840 ha         1 9HI       0.153500
     62 H26          2.8170     2.6090     0.0630 ha         1 9HI       0.145500
     63 H23          3.5590     3.0030    -2.1830 ha         1 9HI       0.140000
     64 HN2          4.3400    -0.0430     2.2070 hn         1 9HI       0.457800
     65 H25          2.6110    -1.1970    -1.4990 ha         1 9HI       0.150500
     66 H16          2.1080    -1.9710     2.6810 ha         1 9HI       0.150500
     67 H19          3.7600    -3.7980     2.5420 ha         1 9HI       0.152500
     68 H14          0.4630     2.8730     3.8200 hc         1 9HI       0.048867
     69 H14A        -1.2020     3.4210     3.8350 hc         1 9HI       0.048867
     70 H14B        -0.8540     1.6950     3.8400 hc         1 9HI       0.048867
     71 H18         -0.5600    -2.8730     0.2500 ha         1 9HI       0.142500
     72 H9          -4.5450     1.8660     0.3290 h1         1 9HI       0.083700
     73 HO4         -4.4530    -0.0960    -1.6820 ho         1 9HI       0.392000
     74 H11         -6.7800     1.4330     1.5480 h1         1 9HI       0.083700
     75 HO3         -7.1920     0.5340    -1.0730 ho         1 9HI       0.380000
     76 H35         -7.9560    -1.2390     0.6870 hc         1 9HI       0.018200
     77 H35A        -7.4930    -0.8110     2.3210 hc         1 9HI       0.018200
     78 N2           3.8900     0.7530     1.7740 nu         1 9HI      -0.723500
     79 F2           4.9710    -4.5140     0.3640 f          1 9HI      -0.145900
     80 C3           5.6440     1.7490    -3.5390 c          1 9HI       0.688700
@<TRIPOS>BOND
     1     1     3 1   
     2     1     5 1   
     3     1    30 1   
     4     2    44 1   
     5     2    45 1   
     6     2    80 1   
     7     3    25 2   
     8     3    32 1   
     9     4     8 1   
    10     4    30 1   
    11     4    31 1   
    12     4    46 1   
    13     5     6 1   
    14     5    47 1   
    15     5    48 1   
    16     6    36 1   
    17     6    49 1   
    18     6    50 1   
    19     7    36 1   
    20     7    38 1   
    21     7    51 1   
    22     7    52 1   
    23     8    53 1   
    24     8    54 1   
    25     8    55 1   
    26     9    33 ar  
    27     9    34 ar  
    28     9    56 1   
    29    10    11 ar  
    30    10    20 ar  
    31    10    57 1   
    32    11    18 ar  
    33    11    58 1   
    34    12    14 ar  
    35    12    32 ar  
    36    12    59 1   
    37    13    16 ar  
    38    13    27 ar  
    39    13    60 1   
    40    14    33 ar  
    41    14    61 1   
    42    15    19 ar  
    43    15    20 ar  
    44    15    62 1   
    45    16    29 ar  
    46    16    79 1   
    47    17    80 2   
    48    18    19 ar  
    49    18    80 1   
    50    19    63 1   
    51    20    78 1   
    52    21    22 2   
    53    21    23 2   
    54    21    24 1   
    55    21    78 1   
    56    24    25 1   
    57    24    30 2   
    58    25    26 1   
    59    26    27 ar  
    60    26    28 ar  
    61    27    65 1   
    62    28    29 ar  
    63    28    66 1   
    64    29    67 1   
    65    31    68 1   
    66    31    69 1   
    67    31    70 1   
    68    32    34 ar  
    69    33    35 1   
    70    34    71 1   
    71    36    37 1   
    72    36    72 1   
    73    37    73 1   
    74    38    39 1   
    75    38    40 1   
    76    38    74 1   
    77    39    75 1   
    78    40    41 1   
    79    40    76 1   
    80    40    77 1   
    81    41    42 1   
    82    41    43 1   
    83    64    78 1   
@<TRIPOS>SUBSTRUCTURE
     1 9HI         1 TEMP              0 ****  ****    0 ROOT
