@<TRIPOS>MOLECULE
9HI
   80    83     1     0     0
SMALL
No Charge or Current Charge


@<TRIPOS>ATOM
      1 N1          -0.4820     0.7240     0.4640 na         1 9HI       0.055000
      2 N3           3.9190     2.7330    -4.4750 nt         1 9HI      -0.604000
      3 C5           0.2340    -0.3910     0.0610 cc         1 9HI      -0.109000
      4 C6          -0.4180     2.5530     2.2660 c3         1 9HI      -0.012400
      5 C7          -1.7810     1.1230    -0.1190 c3         1 9HI       0.055600
      6 C8          -2.9790     0.3880     0.5270 c3         1 9HI      -0.137400
      7 C10         -5.5300     0.1190     0.6770 c3         1 9HI      -0.148400
      8 C13          0.0330     3.9150     1.6900 c3         1 9HI      -0.093100
      9 C15         -0.7580    -3.6760    -1.5210 ca         1 9HI      -0.154000
     10 C17          5.0590     0.3580    -0.3380 ca         1 9HI      -0.172000
     11 C20          5.2140     0.5720    -1.7170 ca         1 9HI      -0.037500
     12 C21         -0.3140    -1.0090    -2.2920 ca         1 9HI      -0.066000
     13 C22          3.8120    -2.9160    -0.7520 ca         1 9HI      -0.154500
     14 C24         -0.6900    -1.9650    -3.2510 ca         1 9HI      -0.154000
     15 C26          3.4220     2.1350    -0.2380 ca         1 9HI      -0.172000
     16 C28          4.3780    -3.5280     0.3740 ca         1 9HI       0.168000
     17 O5           5.4270     1.1120    -4.5310 o          1 9HI      -0.613100
     18 C29          4.4670     1.5720    -2.3780 ca         1 9HI      -0.195600
     19 C23          3.5690     2.3570    -1.6170 ca         1 9HI      -0.037500
     20 C32          4.1530     1.1240     0.4090 ca         1 9HI       0.360000
     21 S1           2.7350     1.1710     2.7800 sy         1 9HI       1.228600
     22 O1           2.9430     0.2260     3.8760 o          1 9HI      -0.546500
     23 O2           2.7840     2.6210     2.9720 o          1 9HI      -0.546500
     24 C2           1.3740     0.6470     1.7110 cd         1 9HI      -0.387500
     25 C1           1.3330    -0.5190     0.8690 cd         1 9HI      -0.022000
     26 C31          2.3820    -1.5530     0.6990 ca         1 9HI      -0.043000
     27 C25          2.8150    -1.9380    -0.5910 ca         1 9HI      -0.074000
     28 C16          2.9500    -2.1940     1.8200 ca         1 9HI      -0.074000
     29 C19          3.9470    -3.1730     1.6600 ca         1 9HI      -0.154500
     30 C12          0.1860     1.3550     1.5280 cc         1 9HI       0.000700
     31 C14         -0.3450     2.4770     3.8100 c3         1 9HI      -0.093100
     32 C27         -0.1600    -1.3810    -0.9410 ca         1 9HI      -0.042000
     33 C30         -0.9110    -3.2950    -2.8630 ca         1 9HI       0.179000
     34 C18         -0.3820    -2.7200    -0.5610 ca         1 9HI      -0.066000
     35 F1          -1.2710    -4.2140    -3.7850 f          1 9HI      -0.177000
     36 C9          -4.3470     0.8010    -0.0550 c3         1 9HI       0.172300
     37 O4          -4.3860     0.4420    -1.4410 oh         1 9HI      -0.656000
     38 C11         -6.9290     0.6600     0.2870 c3         1 9HI       0.187300
     39 O3          -7.1150     0.4470    -1.1100 oh         1 9HI      -0.639000
     40 C35         -8.0690    -0.0220     1.0770 c3         1 9HI      -0.234400
     41 C36         -9.3790     0.7550     0.8910 c          1 9HI       0.727000
     42 O6          -9.5750     1.7220     1.6130 o          1 9HI      -0.734000
     43 O7         -10.1700     0.3790     0.0380 o          1 9HI      -0.734000
     44 HN3          4.0330     2.8790    -5.4670 hn         1 9HI       0.310500
     45 HN3A         3.2710     3.2940    -3.9460 hn         1 9HI       0.310500
     46 H6          -1.4980     2.5260     2.0890 hc         1 9HI       0.058700
     47 H7          -1.9090     2.2080    -0.0220 h1         1 9HI       0.073200
     48 H7A         -1.7620     0.9130    -1.1940 h1         1 9HI       0.073200
     49 H8          -2.8420    -0.6960     0.4170 hc         1 9HI       0.056200
     50 H8A         -2.9750     0.5940     1.6050 hc         1 9HI       0.056200
     51 H10         -5.4920    -0.9650     0.5100 hc         1 9HI       0.039200
     52 H10A        -5.3970     0.2690     1.7560 hc         1 9HI       0.039200
     53 H13         -0.1520     3.9540     0.6100 hc         1 9HI       0.048867
     54 H13A        -0.5250     4.7340     2.1580 hc         1 9HI       0.048867
     55 H13B         1.0990     4.0980     1.8540 hc         1 9HI       0.048867
     56 H15         -0.9280    -4.7080    -1.2270 ha         1 9HI       0.135500
     57 H17          5.6390    -0.4210     0.1480 ha         1 9HI       0.127500
     58 H20          5.9170    -0.0470    -2.2720 ha         1 9HI       0.122000
     59 H21         -0.1280     0.0180    -2.5990 ha         1 9HI       0.124500
     60 H22          4.1490    -3.1940    -1.7470 ha         1 9HI       0.134500
     61 H24         -0.8060    -1.6790    -4.2940 ha         1 9HI       0.135500
     62 H26          2.7270     2.7540     0.3190 ha         1 9HI       0.127500
     63 H23          2.9770     3.1430    -2.0790 ha         1 9HI       0.122000
     64 HN2          4.3480    -0.0530     2.0610 hn         1 9HI       0.513000
     65 H25          2.4090    -1.4510    -1.4730 ha         1 9HI       0.132500
     66 H16          2.5870    -1.9700     2.8180 ha         1 9HI       0.132500
     67 H19          4.3750    -3.6660     2.5290 ha         1 9HI       0.134500
     68 H14          0.6370     2.7510     4.2040 hc         1 9HI       0.048867
     69 H14A        -1.0710     3.1680     4.2560 hc         1 9HI       0.048867
     70 H14B        -0.5910     1.4660     4.1580 hc         1 9HI       0.048867
     71 H18         -0.2620    -3.0150     0.4790 ha         1 9HI       0.124500
     72 H9          -4.4550     1.8900     0.0590 h1         1 9HI       0.083700
     73 HO4         -3.9280    -0.4220    -1.5250 ho         1 9HI       0.431000
     74 H11         -6.9460     1.7380     0.5110 h1         1 9HI       0.083700
     75 HO3         -6.1980     0.4600    -1.4820 ho         1 9HI       0.419000
     76 H35         -8.1570    -1.0510     0.7070 hc         1 9HI       0.018200
     77 H35A        -7.7600     0.0390     2.1280 hc         1 9HI       0.018200
     78 N2           4.0230     0.8520     1.7630 nu         1 9HI      -0.917100
     79 F2           5.3350    -4.4680     0.2210 f          1 9HI      -0.181000
     80 C3           4.6490     1.7760    -3.8650 c          1 9HI       0.621700
@<TRIPOS>BOND
     1     1     3 1   
     2     1     5 1   
     3     1    30 1   
     4     2    44 1   
     5     2    45 1   
     6     2    80 1   
     7     3    25 2   
     8     3    32 1   
     9     4     8 1   
    10     4    30 1   
    11     4    31 1   
    12     4    46 1   
    13     5     6 1   
    14     5    47 1   
    15     5    48 1   
    16     6    36 1   
    17     6    49 1   
    18     6    50 1   
    19     7    36 1   
    20     7    38 1   
    21     7    51 1   
    22     7    52 1   
    23     8    53 1   
    24     8    54 1   
    25     8    55 1   
    26     9    33 ar  
    27     9    34 ar  
    28     9    56 1   
    29    10    11 ar  
    30    10    20 ar  
    31    10    57 1   
    32    11    18 ar  
    33    11    58 1   
    34    12    14 ar  
    35    12    32 ar  
    36    12    59 1   
    37    13    16 ar  
    38    13    27 ar  
    39    13    60 1   
    40    14    33 ar  
    41    14    61 1   
    42    15    19 ar  
    43    15    20 ar  
    44    15    62 1   
    45    16    29 ar  
    46    16    79 1   
    47    17    80 2   
    48    18    19 ar  
    49    18    80 1   
    50    19    63 1   
    51    20    78 1   
    52    21    22 2   
    53    21    23 2   
    54    21    24 1   
    55    21    78 1   
    56    24    25 1   
    57    24    30 2   
    58    25    26 1   
    59    26    27 ar  
    60    26    28 ar  
    61    27    65 1   
    62    28    29 ar  
    63    28    66 1   
    64    29    67 1   
    65    31    68 1   
    66    31    69 1   
    67    31    70 1   
    68    32    34 ar  
    69    33    35 1   
    70    34    71 1   
    71    36    37 1   
    72    36    72 1   
    73    37    73 1   
    74    38    39 1   
    75    38    40 1   
    76    38    74 1   
    77    39    75 1   
    78    40    41 1   
    79    40    76 1   
    80    40    77 1   
    81    41    42 1   
    82    41    43 1   
    83    64    78 1   
@<TRIPOS>SUBSTRUCTURE
     1 9HI         1 TEMP              0 ****  ****    0 ROOT
