@<TRIPOS>MOLECULE
9HJ
   58    60     1     0     0
SMALL
No Charge or Current Charge


@<TRIPOS>ATOM
      1 C4          -1.9300    -0.1920     0.1070 ca         1 9HJ       0.119000
      2 C5          -0.8670     0.7030    -0.1450 ca         1 9HJ      -0.223000
      3 C6           0.4200     0.1410    -0.3040 ca         1 9HJ       0.440900
      4 C7          -3.2020    -5.7590    -0.5910 c3         1 9HJ      -0.086100
      5 N1           0.6290    -1.1800    -0.2220 nb         1 9HJ      -0.344000
      6 N3          -1.7040    -1.5160     0.1890 nb         1 9HJ      -0.297000
      7 C1           1.1420    -3.9270    -0.1100 c3         1 9HJ       0.225100
      8 C2          -0.4400    -1.9540     0.0220 ca         1 9HJ       0.437900
      9 CAB         -5.9120     1.3680     0.6140 c3         1 9HJ       0.143900
     10 CAC         -1.7060     4.9410    -0.3820 c3         1 9HJ       0.145900
     11 CAD          7.1660     0.7230     0.5930 c3         1 9HJ       0.154100
     12 CAE         -3.2310     0.3070     0.2740 ca         1 9HJ      -0.206000
     13 CAF         -1.1190     2.0940    -0.2270 ca         1 9HJ      -0.128000
     14 CAJ         -2.0670    -4.7570    -0.8830 c3         1 9HJ      -0.099400
     15 CAK         -1.3080    -4.3160     0.3870 c3         1 9HJ       0.236800
     16 CAL          3.3730     0.3710     1.0260 c6         1 9HJ      -0.093900
     17 CAM          3.8580     1.5110    -1.1760 c6         1 9HJ      -0.093900
     18 CAN          4.8700     0.0050     1.1310 c6         1 9HJ       0.169800
     19 CAO          5.3430     1.1140    -1.0190 c6         1 9HJ       0.169800
     20 CAW         -3.4920     1.6920     0.1930 ca         1 9HJ       0.165100
     21 CAX         -2.4310     2.5920    -0.0580 ca         1 9HJ       0.083100
     22 CBB          2.9480     0.4930    -0.4550 c6         1 9HJ       0.238500
     23 NAR         -0.2110    -3.3530     0.1100 nh         1 9HJ      -0.784300
     24 NAS          1.5430     0.9300    -0.5560 nu         1 9HJ      -0.925100
     25 NBC          5.7230     0.9930     0.4150 n3         1 9HJ      -0.720600
     26 OAT         -4.7700     2.2030     0.3550 os         1 9HJ      -0.319100
     27 OAU         -2.7160     3.9470    -0.1320 os         1 9HJ      -0.321100
     28 H1          -2.8060    -6.6690    -0.1250 hc         1 9HJ       0.031367
     29 H2          -3.9440    -5.3180     0.0850 hc         1 9HJ       0.031367
     30 H3          -3.7100    -6.0420    -1.5200 hc         1 9HJ       0.031367
     31 H4           1.8390    -3.5740     0.6620 h1         1 9HJ       0.039367
     32 H5           1.1200    -5.0240    -0.0710 h1         1 9HJ       0.039367
     33 H6           1.5270    -3.6360    -1.0960 h1         1 9HJ       0.039367
     34 H7          -6.0670     0.6540    -0.2050 h1         1 9HJ       0.043367
     35 H8          -5.7830     0.8090     1.5500 h1         1 9HJ       0.043367
     36 H9          -6.8170     1.9800     0.7060 h1         1 9HJ       0.043367
     37 H10         -0.9390     4.9240     0.4030 h1         1 9HJ       0.037700
     38 H11         -1.2230     4.7700    -1.3530 h1         1 9HJ       0.037700
     39 H12         -2.1540     5.9420    -0.3980 h1         1 9HJ       0.037700
     40 H13          7.7700     1.5030     0.1110 h1         1 9HJ       0.030367
     41 H14          7.4290     0.7040     1.6600 h1         1 9HJ       0.030367
     42 H15          7.4410    -0.2460     0.1540 h1         1 9HJ       0.030367
     43 H16         -4.0300    -0.4020     0.4670 ha         1 9HJ       0.137000
     44 H17         -0.3020     2.7800    -0.4200 ha         1 9HJ       0.107000
     45 H18         -1.3600    -5.2130    -1.5860 hc         1 9HJ       0.048200
     46 H19         -2.4890    -3.8750    -1.3780 hc         1 9HJ       0.048200
     47 H20         -2.0220    -3.8880     1.1040 h1         1 9HJ       0.052700
     48 H21         -0.9000    -5.2110     0.8770 h1         1 9HJ       0.052700
     49 H22          2.7730    -0.3950     1.5340 hc         1 9HJ       0.054950
     50 H23          3.1900     1.3180     1.5520 hc         1 9HJ       0.054950
     51 H24          3.7050     2.5180    -0.7660 hc         1 9HJ       0.054950
     52 H25          3.6010     1.5580    -2.2430 hc         1 9HJ       0.054950
     53 H26          5.1490    -0.0380     2.1940 h1         1 9HJ       0.033200
     54 H27          5.0240    -1.0020     0.7150 h1         1 9HJ       0.033200
     55 H28          5.5190     0.1610    -1.5410 h1         1 9HJ       0.033200
     56 H29          5.9650     1.8740    -1.5140 h1         1 9HJ       0.033200
     57 H30          3.0840    -0.4840    -0.9470 h1         1 9HJ       0.076700
     58 H31          1.3600     1.9280    -0.6150 hn         1 9HJ       0.491000
@<TRIPOS>BOND
     1     1     2 ar  
     2     1     6 ar  
     3     1    12 ar  
     4     2     3 ar  
     5     2    13 ar  
     6     3     5 ar  
     7     3    24 1   
     8     4    14 1   
     9     4    28 1   
    10     4    29 1   
    11     4    30 1   
    12     5     8 ar  
    13     6     8 ar  
    14     7    23 1   
    15     7    31 1   
    16     7    32 1   
    17     7    33 1   
    18     8    23 1   
    19     9    26 1   
    20     9    34 1   
    21     9    35 1   
    22     9    36 1   
    23    10    27 1   
    24    10    37 1   
    25    10    38 1   
    26    10    39 1   
    27    11    25 1   
    28    11    40 1   
    29    11    41 1   
    30    11    42 1   
    31    12    20 ar  
    32    12    43 1   
    33    13    21 ar  
    34    13    44 1   
    35    14    15 1   
    36    14    45 1   
    37    14    46 1   
    38    15    23 1   
    39    15    47 1   
    40    15    48 1   
    41    16    18 1   
    42    16    22 1   
    43    16    49 1   
    44    16    50 1   
    45    17    19 1   
    46    17    22 1   
    47    17    51 1   
    48    17    52 1   
    49    18    25 1   
    50    18    53 1   
    51    18    54 1   
    52    19    25 1   
    53    19    55 1   
    54    19    56 1   
    55    20    21 ar  
    56    20    26 1   
    57    21    27 1   
    58    22    24 1   
    59    22    57 1   
    60    24    58 1   
@<TRIPOS>SUBSTRUCTURE
     1 9HJ         1 TEMP              0 ****  ****    0 ROOT
