@<TRIPOS>MOLECULE
9HJ
   58    60     1     0     0
SMALL
bcc


@<TRIPOS>ATOM
      1 C4          -1.9080    -0.1480     0.0700 ca         1 9HJ       0.512600
      2 C5          -0.8780     0.7940    -0.0830 ca         1 9HJ      -0.353600
      3 C6           0.4450     0.2390    -0.1630 ca         1 9HJ       0.769200
      4 C7          -2.9930    -5.6640    -0.4990 c3         1 9HJ      -0.086100
      5 N1           0.6440    -1.0580    -0.0710 nb         1 9HJ      -0.870000
      6 N3          -1.6830    -1.4780     0.1500 nb         1 9HJ      -0.823000
      7 C1           1.1680    -3.7400     0.0880 c3         1 9HJ       0.225100
      8 C2          -0.4230    -1.8650     0.0890 ca         1 9HJ       0.963900
      9 CAB         -5.8610     1.3030     0.2690 c3         1 9HJ       0.120700
     10 CAC         -1.8850     4.8930    -0.2120 c3         1 9HJ       0.122700
     11 CAD          7.0880     0.4270     0.3180 c3         1 9HJ       0.154100
     12 CAE         -3.2420     0.3150     0.1400 ca         1 9HJ      -0.289300
     13 CAF         -1.1840     2.1710    -0.1560 ca         1 9HJ      -0.146000
     14 CAJ         -1.8850    -4.6680    -0.8100 c3         1 9HJ      -0.099400
     15 CAK         -1.2330    -4.1330     0.4600 c3         1 9HJ       0.236800
     16 CAL          3.4180     0.2430     1.0340 c6         1 9HJ      -0.093900
     17 CAM          3.7880     1.5420    -1.0610 c6         1 9HJ      -0.093900
     18 CAN          4.8690    -0.2060     0.9580 c6         1 9HJ       0.169800
     19 CAO          5.2270     1.0470    -1.0510 c6         1 9HJ       0.169800
     20 CAW         -3.5320     1.6540     0.0670 ca         1 9HJ       0.165100
     21 CAX         -2.4790     2.6080    -0.0800 ca         1 9HJ       0.083100
     22 CBB          2.8810     0.5380    -0.3630 c6         1 9HJ       0.238500
     23 NAR         -0.1620    -3.1910     0.2080 nh         1 9HJ      -0.784300
     24 NAS          1.5170     1.0270    -0.3510 nu         1 9HJ      -0.869900
     25 NBC          5.6910     0.7900     0.2980 n3         1 9HJ      -0.720600
     26 OAT         -4.7610     2.1800     0.1240 os         1 9HJ      -0.295900
     27 OAU         -2.8800     3.8930    -0.1310 os         1 9HJ      -0.297900
     28 H1          -2.6130    -6.5210     0.0600 hc         1 9HJ       0.031367
     29 H2          -3.7810    -5.2040     0.1000 hc         1 9HJ       0.031367
     30 H3          -3.4520    -6.0440    -1.4120 hc         1 9HJ       0.031367
     31 H4           1.5870    -4.0050     1.0640 h1         1 9HJ       0.039367
     32 H5           1.1410    -4.6450    -0.5200 h1         1 9HJ       0.039367
     33 H6           1.8360    -3.0280    -0.3850 h1         1 9HJ       0.039367
     34 H7          -5.9370     0.6040    -0.5670 h1         1 9HJ       0.043367
     35 H8          -5.8080     0.7350     1.2010 h1         1 9HJ       0.043367
     36 H9          -6.7510     1.9270     0.2880 h1         1 9HJ       0.043367
     37 H10         -1.2010     4.8570     0.6410 h1         1 9HJ       0.037700
     38 H11         -1.3020     4.8190    -1.1340 h1         1 9HJ       0.037700
     39 H12         -2.4050     5.8480    -0.2040 h1         1 9HJ       0.037700
     40 H13          7.6890     1.2210    -0.1300 h1         1 9HJ       0.030367
     41 H14          7.4270     0.2940     1.3470 h1         1 9HJ       0.030367
     42 H15          7.3080    -0.5050    -0.2280 h1         1 9HJ       0.030367
     43 H16         -4.0200    -0.4270     0.2510 ha         1 9HJ       0.155000
     44 H17         -0.3900     2.8960    -0.2680 ha         1 9HJ       0.125000
     45 H18         -1.1270    -5.1410    -1.4400 hc         1 9HJ       0.048200
     46 H19         -2.2880    -3.8270    -1.3790 hc         1 9HJ       0.048200
     47 H20         -1.9880    -3.6610     1.0890 h1         1 9HJ       0.052700
     48 H21         -0.8160    -4.9640     1.0360 h1         1 9HJ       0.052700
     49 H22          2.8150    -0.5350     1.5060 hc         1 9HJ       0.054950
     50 H23          3.3430     1.1430     1.6510 hc         1 9HJ       0.054950
     51 H24          3.7370     2.5100    -0.5510 hc         1 9HJ       0.054950
     52 H25          3.4620     1.6970    -2.0920 hc         1 9HJ       0.054950
     53 H26          5.2590    -0.3700     1.9660 h1         1 9HJ       0.033200
     54 H27          4.9190    -1.1810     0.4400 h1         1 9HJ       0.033200
     55 H28          5.3010     0.1430    -1.6830 h1         1 9HJ       0.033200
     56 H29          5.8750     1.8000    -1.5070 h1         1 9HJ       0.033200
     57 H30          2.8920    -0.3940    -0.9370 h1         1 9HJ       0.076700
     58 H31          1.3970     2.0240    -0.2940 hn         1 9HJ       0.435800
@<TRIPOS>BOND
     1     1     2 ar  
     2     1     6 ar  
     3     1    12 ar  
     4     2     3 ar  
     5     2    13 ar  
     6     3     5 ar  
     7     3    24 1   
     8     4    14 1   
     9     4    28 1   
    10     4    29 1   
    11     4    30 1   
    12     5     8 ar  
    13     6     8 ar  
    14     7    23 1   
    15     7    31 1   
    16     7    32 1   
    17     7    33 1   
    18     8    23 1   
    19     9    26 1   
    20     9    34 1   
    21     9    35 1   
    22     9    36 1   
    23    10    27 1   
    24    10    37 1   
    25    10    38 1   
    26    10    39 1   
    27    11    25 1   
    28    11    40 1   
    29    11    41 1   
    30    11    42 1   
    31    12    20 ar  
    32    12    43 1   
    33    13    21 ar  
    34    13    44 1   
    35    14    15 1   
    36    14    45 1   
    37    14    46 1   
    38    15    23 1   
    39    15    47 1   
    40    15    48 1   
    41    16    18 1   
    42    16    22 1   
    43    16    49 1   
    44    16    50 1   
    45    17    19 1   
    46    17    22 1   
    47    17    51 1   
    48    17    52 1   
    49    18    25 1   
    50    18    53 1   
    51    18    54 1   
    52    19    25 1   
    53    19    55 1   
    54    19    56 1   
    55    20    21 ar  
    56    20    26 1   
    57    21    27 1   
    58    22    24 1   
    59    22    57 1   
    60    24    58 1   
@<TRIPOS>SUBSTRUCTURE
     1 9HJ         1 TEMP              0 ****  ****    0 ROOT
