@<TRIPOS>MOLECULE
9HK
   32    33     1     0     0
SMALL
bcc


@<TRIPOS>ATOM
      1 CAA         -2.4670    -0.9770     1.1890 ca         1 9HK      -0.135000
      2 CAB         -3.5440    -0.1100     1.1930 ca         1 9HK      -0.059000
      3 CAC         -4.1100     0.2600    -0.0190 ca         1 9HK      -0.178200
      4 NAR         -5.2450     1.1670    -0.0260 no         1 9HK       0.315200
      5 OAT         -5.6570     1.5710     1.0360 o          1 9HK      -0.208000
      6 OAS         -5.7210     1.4760    -1.0930 o          1 9HK      -0.208000
      7 CAD         -3.6180    -0.2210    -1.2240 ca         1 9HK      -0.059000
      8 CAE         -2.5400    -1.0870    -1.2060 ca         1 9HK      -0.135000
      9 CAF         -1.9520    -1.4770    -0.0050 ca         1 9HK      -0.033300
     10 CAG         -0.7560    -2.3940     0.0010 c3         1 9HK      -0.000800
     11 CAH          0.5220    -1.5950    -0.0050 ca         1 9HK      -0.027300
     12 CAI          1.1390    -1.2390     1.1920 ca         1 9HK      -0.144000
     13 CAJ          2.2960    -0.4810     1.1980 ca         1 9HK      -0.023500
     14 CAK          2.8390    -0.0690    -0.0130 ca         1 9HK      -0.267500
     15 SAN          4.3240     0.8900    -0.0040 sy         1 9HK       1.269200
     16 OAO          4.4360     1.5490    -1.2980 o          1 9HK      -0.612800
     17 OAP          4.3660     1.7100     1.1990 o          1 9HK      -0.612800
     18 NAQ          5.4660    -0.2830     0.2120 n8         1 9HK      -0.896700
     19 CAL          2.2390    -0.4030    -1.2180 ca         1 9HK      -0.023500
     20 CAM          1.0830    -1.1680    -1.2050 ca         1 9HK      -0.144000
     21 H1          -2.0260    -1.2700     2.1330 ha         1 9HK       0.144000
     22 H2          -3.9300     0.2630     2.1300 ha         1 9HK       0.171000
     23 H3          -4.0620     0.0640    -2.1670 ha         1 9HK       0.171000
     24 H4          -2.1560    -1.4670    -2.1440 ha         1 9HK       0.144000
     25 H5          -0.7870    -3.0340     0.8840 hc         1 9HK       0.065700
     26 H6          -0.7880    -3.0470    -0.8720 hc         1 9HK       0.065700
     27 H7           0.7140    -1.5610     2.1350 ha         1 9HK       0.136000
     28 H8           2.7640    -0.2200     2.1380 ha         1 9HK       0.157000
     29 H9           5.6570    -0.8070    -0.6350 hn         1 9HK       0.419800
     30 H10          6.3280     0.0970     0.5940 hn         1 9HK       0.419800
     31 H11          2.6600    -0.0820    -2.1600 ha         1 9HK       0.157000
     32 H12          0.6170    -1.4350    -2.1450 ha         1 9HK       0.136000
@<TRIPOS>BOND
     1     1     2 ar  
     2     1     9 ar  
     3     1    21 1   
     4     2     3 ar  
     5     2    22 1   
     6     3     4 1   
     7     3     7 ar  
     8     4     5 1   
     9     4     6 1   
    10     7     8 ar  
    11     7    23 1   
    12     8     9 ar  
    13     8    24 1   
    14     9    10 1   
    15    10    11 1   
    16    10    25 1   
    17    10    26 1   
    18    11    12 ar  
    19    11    20 ar  
    20    12    13 ar  
    21    12    27 1   
    22    13    14 ar  
    23    13    28 1   
    24    14    15 1   
    25    14    19 ar  
    26    15    16 2   
    27    15    17 2   
    28    15    18 1   
    29    18    29 1   
    30    18    30 1   
    31    19    20 ar  
    32    19    31 1   
    33    20    32 1   
@<TRIPOS>SUBSTRUCTURE
     1 9HK         1 TEMP              0 ****  ****    0 ROOT
