@<TRIPOS>MOLECULE
9HK
   32    33     1     0     0
SMALL
No Charge or Current Charge


@<TRIPOS>ATOM
      1 CAA         -2.5570    -0.9950     1.2240 ca         1 9HK      -0.117000
      2 CAB         -3.6700    -0.1360     1.2120 ca         1 9HK      -0.041000
      3 CAC         -4.2420     0.2750    -0.0150 ca         1 9HK      -0.178200
      4 NAR         -5.4280     1.1910    -0.0330 no         1 9HK       0.695200
      5 OAT         -5.8890     1.5750     1.0500 o          1 9HK      -0.398000
      6 OAS         -5.8950     1.5230    -1.1310 o          1 9HK      -0.398000
      7 CAD         -3.6760    -0.1930    -1.2250 ca         1 9HK      -0.041000
      8 CAE         -2.5640    -1.0520    -1.2030 ca         1 9HK      -0.117000
      9 CAF         -1.9990    -1.4590     0.0190 ca         1 9HK      -0.033300
     10 CAG         -0.7890    -2.3840     0.0380 c3         1 9HK      -0.000800
     11 CAH          0.5140    -1.5970     0.0180 ca         1 9HK      -0.027300
     12 CAI          1.1230    -1.1990     1.2230 ca         1 9HK      -0.126000
     13 CAJ          2.3230    -0.4670     1.2080 ca         1 9HK      -0.005500
     14 CAK          2.9240    -0.1220    -0.0200 ca         1 9HK      -0.267500
     15 SAN          4.4560     0.8150    -0.0440 sy         1 9HK       1.127600
     16 OAO          4.6530     1.4630    -1.3380 o          1 9HK      -0.542000
     17 OAP          4.6590     1.5190     1.2200 o          1 9HK      -0.542000
     18 NAQ          5.6000    -0.3470    -0.0220 n8         1 9HK      -1.007100
     19 CAL          2.3170    -0.5190    -1.2290 ca         1 9HK      -0.005500
     20 CAM          1.1170    -1.2510    -1.2070 ca         1 9HK      -0.126000
     21 H1          -2.1270    -1.2990     2.1760 ha         1 9HK       0.126000
     22 H2          -4.0790     0.2070     2.1610 ha         1 9HK       0.153000
     23 H3          -4.0910     0.1050    -2.1870 ha         1 9HK       0.153000
     24 H4          -2.1390    -1.4000    -2.1420 ha         1 9HK       0.126000
     25 H5          -0.8240    -3.0300     0.9240 hc         1 9HK       0.065700
     26 H6          -0.8270    -3.0690    -0.8180 hc         1 9HK       0.065700
     27 H7           0.6670    -1.4570     2.1750 ha         1 9HK       0.118000
     28 H8           2.7800    -0.1700     2.1510 ha         1 9HK       0.139000
     29 H9           6.1630    -0.0640    -0.8200 hn         1 9HK       0.475000
     30 H10          6.1670    -0.0300     0.7610 hn         1 9HK       0.475000
     31 H11          2.7690    -0.2630    -2.1860 ha         1 9HK       0.139000
     32 H12          0.6550    -1.5490    -2.1450 ha         1 9HK       0.118000
@<TRIPOS>BOND
     1     1     2 ar  
     2     1     9 ar  
     3     1    21 1   
     4     2     3 ar  
     5     2    22 1   
     6     3     4 1   
     7     3     7 ar  
     8     4     5 1   
     9     4     6 1   
    10     7     8 ar  
    11     7    23 1   
    12     8     9 ar  
    13     8    24 1   
    14     9    10 1   
    15    10    11 1   
    16    10    25 1   
    17    10    26 1   
    18    11    12 ar  
    19    11    20 ar  
    20    12    13 ar  
    21    12    27 1   
    22    13    14 ar  
    23    13    28 1   
    24    14    15 1   
    25    14    19 ar  
    26    15    16 2   
    27    15    17 2   
    28    15    18 1   
    29    18    29 1   
    30    18    30 1   
    31    19    20 ar  
    32    19    31 1   
    33    20    32 1   
@<TRIPOS>SUBSTRUCTURE
     1 9HK         1 TEMP              0 ****  ****    0 ROOT
