@<TRIPOS>MOLECULE
9HL
   45    48     1     0     0
SMALL
No Charge or Current Charge


@<TRIPOS>ATOM
      1 N01          7.5590    -2.0350    -1.3650 nc         1 9HL      -0.669000
      2 C02          6.3070    -1.5850    -1.3320 cd         1 9HL       0.429400
      3 N03          6.0770    -1.0130    -0.0960 na         1 9HL      -0.190000
      4 C04          7.2760    -0.9010     0.5810 cd         1 9HL      -0.191000
      5 C05          8.1480    -1.6180    -0.1950 cc         1 9HL       0.227900
      6 C1          -5.5120    -0.5050     0.2750 ca         1 9HL      -0.015300
      7 N11          4.0320     0.0100     0.4630 nb         1 9HL      -0.211000
      8 C12          5.2570     0.1110    -0.1090 ca         1 9HL       0.242500
      9 N13          5.7000     1.2600    -0.6850 nb         1 9HL      -0.194000
     10 C14          4.8930     2.3380    -0.6880 ca         1 9HL       0.137900
     11 C15          3.6180     2.2960    -0.1150 ca         1 9HL      -0.234000
     12 C16          3.2190     1.0850     0.4640 ca         1 9HL       0.159300
     13 C17          1.8530     0.9250     1.1080 c3         1 9HL      -0.138700
     14 C18          0.7800     0.5290     0.0810 c3         1 9HL       0.162800
     15 N19         -0.5270     0.4060     0.7480 n7         1 9HL      -0.861400
     16 C2          -6.4000    -0.8330    -0.7700 ca         1 9HL      -0.149000
     17 C20         -1.6470     0.0420    -0.1360 c3         1 9HL       0.187800
     18 C21         -2.9300    -0.0780     0.6740 cx         1 9HL      -0.110700
     19 C22         -3.2720    -1.3510     1.4140 cx         1 9HL      -0.120400
     20 C23         -4.0710    -0.9490     0.1910 cx         1 9HL      -0.084400
     21 C3          -7.7430    -0.4300    -0.7130 ca         1 9HL       0.173000
     22 C4          -8.2200     0.3050     0.3820 ca         1 9HL      -0.153000
     23 C5          -7.3460     0.6390     1.4290 ca         1 9HL      -0.082000
     24 C6          -5.9990     0.2360     1.3750 ca         1 9HL      -0.128000
     25 F7          -8.5830    -0.7520    -1.7210 f          1 9HL      -0.181000
     26 H02          5.5560    -1.6410    -2.1130 h5         1 9HL       0.072100
     27 H04          7.4140    -0.3650     1.5130 h4         1 9HL       0.176000
     28 H05          9.1950    -1.8240    -0.0080 h4         1 9HL       0.041100
     29 H14          5.2770     3.2420    -1.1580 h4         1 9HL       0.033100
     30 H15          2.9690     3.1670    -0.1210 ha         1 9HL       0.144000
     31 H17          1.8940     0.1680     1.9010 hc         1 9HL       0.069700
     32 H17A         1.5590     1.8640     1.5920 hc         1 9HL       0.069700
     33 H18          0.7390     1.2940    -0.7070 h1         1 9HL       0.040200
     34 H18A         1.0650    -0.4230    -0.3900 h1         1 9HL       0.040200
     35 HN19        -0.4520    -0.3200     1.4690 hn         1 9HL       0.410000
     36 H2          -6.0530    -1.4020    -1.6280 ha         1 9HL       0.130000
     37 H20         -1.7870     0.8050    -0.9140 h1         1 9HL       0.035700
     38 H20A        -1.4420    -0.9130    -0.6390 h1         1 9HL       0.035700
     39 H21         -3.1950     0.8590     1.1570 hc         1 9HL       0.093700
     40 H22         -2.5960    -2.1970     1.3160 hc         1 9HL       0.075700
     41 H22A        -3.7390    -1.2600     2.3910 hc         1 9HL       0.075700
     42 H23         -3.8780    -1.5350    -0.7060 hc         1 9HL       0.083700
     43 H4          -9.2620     0.6130     0.4170 ha         1 9HL       0.133000
     44 H5          -7.7090     1.2090     2.2810 ha         1 9HL       0.116000
     45 H6          -5.3390     0.5050     2.1950 ha         1 9HL       0.117000
@<TRIPOS>BOND
     1     1     2 2   
     2     1     5 1   
     3     2     3 1   
     4     2    26 1   
     5     3     4 1   
     6     3     8 1   
     7     4     5 2   
     8     4    27 1   
     9     5    28 1   
    10     6    16 ar  
    11     6    20 1   
    12     6    24 ar  
    13     7     8 ar  
    14     7    12 ar  
    15     8     9 ar  
    16     9    10 ar  
    17    10    11 ar  
    18    10    29 1   
    19    11    12 ar  
    20    11    30 1   
    21    12    13 1   
    22    13    14 1   
    23    13    31 1   
    24    13    32 1   
    25    14    15 1   
    26    14    33 1   
    27    14    34 1   
    28    15    17 1   
    29    15    35 1   
    30    16    21 ar  
    31    16    36 1   
    32    17    18 1   
    33    17    37 1   
    34    17    38 1   
    35    18    19 1   
    36    18    20 1   
    37    18    39 1   
    38    19    20 1   
    39    19    40 1   
    40    19    41 1   
    41    20    42 1   
    42    21    22 ar  
    43    21    25 1   
    44    22    23 ar  
    45    22    43 1   
    46    23    24 ar  
    47    23    44 1   
    48    24    45 1   
@<TRIPOS>SUBSTRUCTURE
     1 9HL         1 TEMP              0 ****  ****    0 ROOT
