@<TRIPOS>MOLECULE
9HL
   45    48     1     0     0
SMALL
bcc


@<TRIPOS>ATOM
      1 N01          6.1170    -2.9360    -0.6400 nc         1 9HL      -0.669000
      2 C02          5.2640    -2.0440    -0.2320 cd         1 9HL       0.429400
      3 N03          5.7390    -0.7780    -0.4120 na         1 9HL      -0.240700
      4 C04          6.9880    -0.8940    -0.9770 cd         1 9HL      -0.223600
      5 C05          7.1980    -2.2300    -1.1070 cc         1 9HL       0.293200
      6 C1          -5.2290    -0.6230     0.1110 ca         1 9HL      -0.015300
      7 N11          3.8900     0.2780     0.4740 nb         1 9HL      -0.737000
      8 C12          5.0750     0.4090    -0.0860 ca         1 9HL       0.768500
      9 N13          5.7080     1.5300    -0.3740 nb         1 9HL      -0.720000
     10 C14          5.0620     2.6470    -0.0610 ca         1 9HL       0.466200
     11 C15          3.8090     2.6390     0.5230 ca         1 9HL      -0.382600
     12 C16          3.2400     1.3970     0.7840 ca         1 9HL       0.487600
     13 C17          1.8810     1.2530     1.3870 c3         1 9HL      -0.138700
     14 C18          0.8660     0.7530     0.3580 c3         1 9HL       0.162800
     15 N19         -0.4390     0.6060     0.9670 n7         1 9HL      -0.806200
     16 C2          -5.9900    -1.0530    -0.9750 ca         1 9HL      -0.167000
     17 C20         -1.4500     0.1640     0.0250 c3         1 9HL       0.187800
     18 C21         -2.7790     0.0090     0.7130 cx         1 9HL      -0.110700
     19 C22         -3.0890    -1.2450     1.4600 cx         1 9HL      -0.120400
     20 C23         -3.7880    -0.9580     0.1560 cx         1 9HL      -0.084400
     21 C3          -7.3350    -0.7430    -1.0320 ca         1 9HL       0.137900
     22 C4          -7.9730    -0.0140    -0.0490 ca         1 9HL      -0.171000
     23 C5          -7.2100     0.4130     1.0320 ca         1 9HL      -0.100000
     24 C6          -5.8590     0.1160     1.1150 ca         1 9HL      -0.146000
     25 F7          -8.0460    -1.1700    -2.0900 f          1 9HL      -0.145900
     26 H02          4.2940    -2.2370     0.1970 h5         1 9HL       0.072100
     27 H04          7.5910    -0.0390    -1.2250 h4         1 9HL       0.194000
     28 H05          8.0680    -2.7230    -1.5110 h4         1 9HL       0.041100
     29 H14          5.5660     3.5790    -0.2860 h4         1 9HL       0.033100
     30 H15          3.2990     3.5600     0.7660 ha         1 9HL       0.162000
     31 H17          1.9370     0.5410     2.2160 hc         1 9HL       0.069700
     32 H17A         1.5470     2.2090     1.7930 hc         1 9HL       0.069700
     33 H18          0.7890     1.4820    -0.4540 h1         1 9HL       0.040200
     34 H18A         1.2370    -0.1790    -0.0930 h1         1 9HL       0.040200
     35 HN19        -0.3760    -0.0760     1.7150 hn         1 9HL       0.354800
     36 H2          -5.5340    -1.6250    -1.7750 ha         1 9HL       0.148000
     37 H20         -1.5330     0.9140    -0.7680 h1         1 9HL       0.035700
     38 H20A        -1.1840    -0.7830    -0.4720 h1         1 9HL       0.035700
     39 H21         -3.1850     0.9270     1.1250 hc         1 9HL       0.093700
     40 H22         -2.3540    -2.0410     1.4600 hc         1 9HL       0.075700
     41 H22A        -3.6710    -1.1770     2.3710 hc         1 9HL       0.075700
     42 H23         -3.4480    -1.5450    -0.6920 hc         1 9HL       0.083700
     43 H4          -9.0280     0.2130    -0.1210 ha         1 9HL       0.151000
     44 H5          -7.6820     0.9860     1.8190 ha         1 9HL       0.134000
     45 H6          -5.2970     0.4670     1.9720 ha         1 9HL       0.135000
@<TRIPOS>BOND
     1     1     2 2   
     2     1     5 1   
     3     2     3 1   
     4     2    26 1   
     5     3     4 1   
     6     3     8 1   
     7     4     5 2   
     8     4    27 1   
     9     5    28 1   
    10     6    16 ar  
    11     6    20 1   
    12     6    24 ar  
    13     7     8 ar  
    14     7    12 ar  
    15     8     9 ar  
    16     9    10 ar  
    17    10    11 ar  
    18    10    29 1   
    19    11    12 ar  
    20    11    30 1   
    21    12    13 1   
    22    13    14 1   
    23    13    31 1   
    24    13    32 1   
    25    14    15 1   
    26    14    33 1   
    27    14    34 1   
    28    15    17 1   
    29    15    35 1   
    30    16    21 ar  
    31    16    36 1   
    32    17    18 1   
    33    17    37 1   
    34    17    38 1   
    35    18    19 1   
    36    18    20 1   
    37    18    39 1   
    38    19    20 1   
    39    19    40 1   
    40    19    41 1   
    41    20    42 1   
    42    21    22 ar  
    43    21    25 1   
    44    22    23 ar  
    45    22    43 1   
    46    23    24 ar  
    47    23    44 1   
    48    24    45 1   
@<TRIPOS>SUBSTRUCTURE
     1 9HL         1 TEMP              0 ****  ****    0 ROOT
