@<TRIPOS>MOLECULE
9HN
   64    67     1     0     0
SMALL
No Charge or Current Charge


@<TRIPOS>ATOM
      1 CBG         -0.2110     3.4640    -2.3520 c3         1 9HN      -0.107767
      2 CBF         -0.6470     3.7300    -0.8940 c3         1 9HN       0.206000
      3 CBH          0.6000     3.9830    -0.0080 c3         1 9HN      -0.107767
      4 CBI         -1.6750     4.8900    -0.8510 c3         1 9HN      -0.107767
      5 OBD         -1.2820     2.4990    -0.4870 os         1 9HN      -0.461100
      6 CBA         -1.8260     2.3120     0.7660 c          1 9HN       0.607100
      7 OBE         -1.8670     3.1450     1.6620 o          1 9HN      -0.484000
      8 CBD         -2.3430     0.8740     0.9270 c3         1 9HN      -0.131700
      9 CAZ         -3.8510     0.8490     1.2840 c3         1 9HN      -0.038200
     10 CBB         -4.7040     1.5290     0.2310 c2         1 9HN      -0.220200
     11 CBC         -5.4460     0.8910    -0.6870 c2         1 9HN      -0.313000
     12 CAF         -1.4640     0.0840     1.9440 c3         1 9HN       0.105200
     13 NAE         -0.0190     0.3100     1.7000 n2         1 9HN      -0.565900
     14 CAG         -1.7580    -1.4040     1.9950 cc         1 9HN       0.372800
     15 NAH         -2.2470    -2.0810     3.0260 nd         1 9HN      -0.335000
     16 NAI         -2.2710    -3.4230     2.6870 nd         1 9HN      -0.357000
     17 CAJ         -1.7940    -3.5540     1.4560 cc         1 9HN       0.404800
     18 CAU         -1.5760    -4.8610     0.7460 c3         1 9HN      -0.123400
     19 NAA         -1.4790    -2.2980     1.0010 na         1 9HN      -0.271800
     20 CAB         -0.9940    -1.9470    -0.2620 ca         1 9HN      -0.020200
     21 CAQ         -1.5860    -2.4960    -1.4180 ca         1 9HN      -0.079000
     22 CAR         -1.1460    -2.1270    -2.6990 ca         1 9HN      -0.177000
     23 CAS         -0.1120    -1.1820    -2.8390 ca         1 9HN       0.145100
     24 OAV          0.3560    -0.7670    -4.0690 os         1 9HN      -0.334100
     25 CAW         -0.1800    -1.2720    -5.3050 c3         1 9HN       0.145900
     26 CAT          0.4670    -0.6180    -1.6930 ca         1 9HN      -0.105000
     27 CAC          0.0440    -0.9890    -0.3970 ca         1 9HN      -0.142900
     28 CAD          0.6770    -0.3020     0.7830 ce         1 9HN       0.540500
     29 CAK          2.1750    -0.1680     0.8000 ca         1 9HN      -0.143900
     30 CAL          2.8030     0.8840     1.5080 ca         1 9HN      -0.068000
     31 CAM          4.2050     0.9840     1.5460 ca         1 9HN      -0.113500
     32 CAN          4.9960     0.0260     0.8940 ca         1 9HN       0.133000
     33 ClA          6.7490     0.1520     0.9450 cl         1 9HN      -0.198000
     34 CAO          4.3890    -1.0380     0.2110 ca         1 9HN      -0.113500
     35 CAP          2.9870    -1.1410     0.1700 ca         1 9HN      -0.068000
     36 HBI          0.4810     2.6140    -2.4040 hc         1 9HN       0.049256
     37 HBG         -1.0780     3.2350    -2.9830 hc         1 9HN       0.049256
     38 HBH          0.2960     4.3400    -2.7750 hc         1 9HN       0.049256
     39 HBJ          1.2090     4.7920    -0.4290 hc         1 9HN       0.049256
     40 HBK          0.3270     4.2770     1.0110 hc         1 9HN       0.049256
     41 HBL          1.2250     3.0840     0.0470 hc         1 9HN       0.049256
     42 HBN         -1.2830     5.7660    -1.3810 hc         1 9HN       0.049256
     43 HBO         -2.6140     4.5950    -1.3330 hc         1 9HN       0.049256
     44 HBM         -1.8950     5.2050     0.1740 hc         1 9HN       0.049256
     45 H1          -2.2430     0.3950    -0.0520 hc         1 9HN       0.082700
     46 HA0         -4.1750    -0.1930     1.3990 hc         1 9HN       0.067200
     47 HA1         -4.0100     1.3260     2.2600 hc         1 9HN       0.067200
     48 HBB         -4.6930     2.6210     0.2700 ha         1 9HN       0.172000
     49 HBC         -6.0460     1.4390    -1.4160 ha         1 9HN       0.162500
     50 HBD         -5.4800    -0.1980    -0.7460 ha         1 9HN       0.162500
     51 HAF         -1.7060     0.4760     2.9420 h1         1 9HN       0.121700
     52 HAV         -2.4530    -5.1270     0.1450 hc         1 9HN       0.060367
     53 HAW         -0.7030    -4.8120     0.0850 hc         1 9HN       0.060367
     54 HAU         -1.4040    -5.6690     1.4660 hc         1 9HN       0.060367
     55 HAQ         -2.4110    -3.2000    -1.3320 ha         1 9HN       0.129000
     56 HAR         -1.6270    -2.5720    -3.5640 ha         1 9HN       0.127000
     57 HAX         -0.0450    -2.3590    -5.3730 h1         1 9HN       0.046033
     58 HAY         -1.2500    -1.0430    -5.3890 h1         1 9HN       0.046033
     59 HAZ          0.3330    -0.8120    -6.1580 h1         1 9HN       0.046033
     60 HAT          1.2470     0.1290    -1.8190 ha         1 9HN       0.144000
     61 HAL          2.2100     1.6360     2.0240 ha         1 9HN       0.131500
     62 HAM          4.6780     1.8020     2.0830 ha         1 9HN       0.133000
     63 HAO          5.0040    -1.7860    -0.2820 ha         1 9HN       0.133000
     64 HAP          2.5380    -1.9850    -0.3490 ha         1 9HN       0.131500
@<TRIPOS>BOND
     1     1     2 1   
     2     1    36 1   
     3     1    37 1   
     4     1    38 1   
     5     2     3 1   
     6     2     4 1   
     7     2     5 1   
     8     3    39 1   
     9     3    40 1   
    10     3    41 1   
    11     4    42 1   
    12     4    43 1   
    13     4    44 1   
    14     5     6 1   
    15     6     7 2   
    16     6     8 1   
    17     8     9 1   
    18     8    12 1   
    19     8    45 1   
    20     9    10 1   
    21     9    46 1   
    22     9    47 1   
    23    10    11 2   
    24    10    48 1   
    25    11    49 1   
    26    11    50 1   
    27    12    13 1   
    28    12    14 1   
    29    12    51 1   
    30    13    28 2   
    31    14    15 2   
    32    14    19 1   
    33    15    16 1   
    34    16    17 2   
    35    17    18 1   
    36    17    19 1   
    37    18    52 1   
    38    18    53 1   
    39    18    54 1   
    40    19    20 1   
    41    20    21 ar  
    42    20    27 ar  
    43    21    22 ar  
    44    21    55 1   
    45    22    23 ar  
    46    22    56 1   
    47    23    24 1   
    48    23    26 ar  
    49    24    25 1   
    50    25    57 1   
    51    25    58 1   
    52    25    59 1   
    53    26    27 ar  
    54    26    60 1   
    55    27    28 1   
    56    28    29 1   
    57    29    30 ar  
    58    29    35 ar  
    59    30    31 ar  
    60    30    61 1   
    61    31    32 ar  
    62    31    62 1   
    63    32    33 1   
    64    32    34 ar  
    65    34    35 ar  
    66    34    63 1   
    67    35    64 1   
@<TRIPOS>SUBSTRUCTURE
     1 9HN         1 TEMP              0 ****  ****    0 ROOT
