@<TRIPOS>MOLECULE
9HN
   64    67     1     0     0
SMALL
abcg2


@<TRIPOS>ATOM
      1 CBG         -0.3420     3.2030    -2.4820 c3         1 9HN      -0.107767
      2 CBF         -0.6030     3.5160    -1.0150 c3         1 9HN       0.206000
      3 CBH          0.7100     3.7830    -0.2940 c3         1 9HN      -0.107767
      4 CBI         -1.5750     4.6830    -0.8980 c3         1 9HN      -0.107767
      5 OBD         -1.2160     2.2850    -0.5230 os         1 9HN      -0.461100
      6 CBA         -1.6490     2.1220     0.7100 c          1 9HN       0.607100
      7 OBE         -1.5790     2.9310     1.6020 o          1 9HN      -0.484000
      8 CBD         -2.2870     0.7570     0.8910 c3         1 9HN      -0.131700
      9 CAZ         -3.7390     0.9070     1.3660 c3         1 9HN      -0.038200
     10 CBB         -4.5960     1.6220     0.3690 c2         1 9HN      -0.220200
     11 CBC         -5.5870     1.0590    -0.3120 c2         1 9HN      -0.313000
     12 CAF         -1.4730    -0.0340     1.9420 c3         1 9HN       0.105200
     13 NAE         -0.0320     0.1120     1.8330 n2         1 9HN      -0.565900
     14 CAG         -1.8040    -1.4850     1.9650 cc         1 9HN       0.372800
     15 NAH         -2.2940    -2.1640     2.9550 nd         1 9HN      -0.335000
     16 NAI         -2.3210    -3.4700     2.5870 nd         1 9HN      -0.357000
     17 CAJ         -1.8430    -3.5690     1.3800 cc         1 9HN       0.404800
     18 CAU         -1.6610    -4.8300     0.6230 c3         1 9HN      -0.123400
     19 NAA         -1.5010    -2.3240     0.9340 na         1 9HN      -0.271800
     20 CAB         -0.9820    -1.9260    -0.3150 ca         1 9HN      -0.020200
     21 CAQ         -1.5200    -2.4350    -1.4850 ca         1 9HN      -0.079000
     22 CAR         -1.0560    -2.0230    -2.7240 ca         1 9HN      -0.177000
     23 CAS         -0.0440    -1.0700    -2.8000 ca         1 9HN       0.145100
     24 OAV          0.4630    -0.5850    -3.9400 os         1 9HN      -0.334100
     25 CAW         -0.0650    -1.0500    -5.1690 c3         1 9HN       0.145900
     26 CAT          0.4930    -0.5580    -1.6210 ca         1 9HN      -0.105000
     27 CAC          0.0380    -0.9690    -0.3780 ca         1 9HN      -0.142900
     28 CAD          0.6150    -0.3170     0.8260 ce         1 9HN       0.540500
     29 CAK          2.0860    -0.1200     0.8470 ca         1 9HN      -0.143900
     30 CAL          2.6320     0.9800     1.5060 ca         1 9HN      -0.068000
     31 CAM          4.0030     1.1600     1.5690 ca         1 9HN      -0.113500
     32 CAN          4.8360     0.2180     0.9830 ca         1 9HN       0.133000
     33 CLA          6.5510     0.4330     1.0640 cl         1 9HN      -0.198000
     34 CAO          4.3190    -0.8910     0.3330 ca         1 9HN      -0.113500
     35 CAP          2.9430    -1.0490     0.2620 ca         1 9HN      -0.068000
     36 HBI          0.3420     2.3610    -2.5950 hc         1 9HN       0.049256
     37 HBG         -1.2680     2.9640    -3.0070 hc         1 9HN       0.049256
     38 HBH          0.1080     4.0670    -2.9700 hc         1 9HN       0.049256
     39 HBJ          1.2160     4.6230    -0.7730 hc         1 9HN       0.049256
     40 HBK          0.5700     4.0350     0.7550 hc         1 9HN       0.049256
     41 HBL          1.3730     2.9190    -0.3600 hc         1 9HN       0.049256
     42 HBN         -1.1650     5.5430    -1.4290 hc         1 9HN       0.049256
     43 HBO         -2.5340     4.4380    -1.3590 hc         1 9HN       0.049256
     44 HBM         -1.7500     4.9840     0.1320 hc         1 9HN       0.049256
     45 H1          -2.2900     0.2390    -0.0670 hc         1 9HN       0.082700
     46 HA0         -4.1500    -0.0870     1.5600 hc         1 9HN       0.067200
     47 HA1         -3.7430     1.4450     2.3180 hc         1 9HN       0.067200
     48 HBB         -4.3780     2.6740     0.2020 ha         1 9HN       0.172000
     49 HBC         -6.1740     1.6210    -1.0260 ha         1 9HN       0.162500
     50 HBD         -5.8490     0.0150    -0.1780 ha         1 9HN       0.162500
     51 HAF         -1.7530     0.3570     2.9230 h1         1 9HN       0.121700
     52 HAV         -2.4470    -4.9790    -0.1180 hc         1 9HN       0.060367
     53 HAW         -0.7040    -4.8490     0.1040 hc         1 9HN       0.060367
     54 HAU         -1.6970    -5.6680     1.3160 hc         1 9HN       0.060367
     55 HAQ         -2.3340    -3.1450    -1.4470 ha         1 9HN       0.129000
     56 HAR         -1.5110    -2.4440    -3.6100 ha         1 9HN       0.127000
     57 HAX          0.0830    -2.1250    -5.2930 h1         1 9HN       0.046033
     58 HAY         -1.1300    -0.8240    -5.2640 h1         1 9HN       0.046033
     59 HAZ          0.4760    -0.5270    -5.9530 h1         1 9HN       0.046033
     60 HAT          1.2740     0.1890    -1.6900 ha         1 9HN       0.144000
     61 HAL          1.9800     1.7090     1.9670 ha         1 9HN       0.131500
     62 HAM          4.4160     2.0260     2.0680 ha         1 9HN       0.133000
     63 HAO          4.9740    -1.6260    -0.1140 ha         1 9HN       0.133000
     64 HAP          2.5470    -1.9210    -0.2420 ha         1 9HN       0.131500
@<TRIPOS>BOND
     1     1     2 1   
     2     1    36 1   
     3     1    37 1   
     4     1    38 1   
     5     2     3 1   
     6     2     4 1   
     7     2     5 1   
     8     3    39 1   
     9     3    40 1   
    10     3    41 1   
    11     4    42 1   
    12     4    43 1   
    13     4    44 1   
    14     5     6 1   
    15     6     7 2   
    16     6     8 1   
    17     8     9 1   
    18     8    12 1   
    19     8    45 1   
    20     9    10 1   
    21     9    46 1   
    22     9    47 1   
    23    10    11 2   
    24    10    48 1   
    25    11    49 1   
    26    11    50 1   
    27    12    13 1   
    28    12    14 1   
    29    12    51 1   
    30    13    28 2   
    31    14    15 2   
    32    14    19 1   
    33    15    16 1   
    34    16    17 2   
    35    17    18 1   
    36    17    19 1   
    37    18    52 1   
    38    18    53 1   
    39    18    54 1   
    40    19    20 1   
    41    20    21 ar  
    42    20    27 ar  
    43    21    22 ar  
    44    21    55 1   
    45    22    23 ar  
    46    22    56 1   
    47    23    24 1   
    48    23    26 ar  
    49    24    25 1   
    50    25    57 1   
    51    25    58 1   
    52    25    59 1   
    53    26    27 ar  
    54    26    60 1   
    55    27    28 1   
    56    28    29 1   
    57    29    30 ar  
    58    29    35 ar  
    59    30    31 ar  
    60    30    61 1   
    61    31    32 ar  
    62    31    62 1   
    63    32    33 1   
    64    32    34 ar  
    65    34    35 ar  
    66    34    63 1   
    67    35    64 1   
@<TRIPOS>SUBSTRUCTURE
     1 9HN         1 TEMP              0 ****  ****    0 ROOT
