@<TRIPOS>MOLECULE
9HO
   52    51     1     0     0
SMALL
No Charge or Current Charge


@<TRIPOS>ATOM
      1 O2           8.8390    -1.4390     2.2300 o          1 9HO      -0.743500
      2 C1           8.6910    -0.9050     1.1410 c          1 9HO       0.717000
      3 O1           9.3330    -1.2090     0.1470 o          1 9HO      -0.743500
      4 C2           7.5950     0.1670     0.9990 c3         1 9HO      -0.204400
      5 C3           6.2500    -0.4920     0.6070 c3         1 9HO      -0.053400
      6 C4           5.0980     0.5250     0.4470 c3         1 9HO      -0.079400
      7 C5           3.7570    -0.1350     0.0560 c3         1 9HO      -0.074400
      8 C6           2.6060     0.8830    -0.1040 c3         1 9HO      -0.076400
      9 C7           1.2650     0.2230    -0.4940 c3         1 9HO      -0.073400
     10 C8           0.1130     1.2440    -0.6520 c3         1 9HO      -0.106400
     11 C9          -1.2550     0.6050    -0.9970 c3         1 9HO       0.198500
     12 C10         -2.3800     1.6170    -1.0100 c2         1 9HO      -0.239200
     13 C11         -3.6970     1.3240    -1.0800 ce         1 9HO      -0.185000
     14 C12         -4.7490     2.3480    -1.0800 ce         1 9HO      -0.178000
     15 C13         -6.0760     2.0970    -1.1450 c2         1 9HO      -0.210200
     16 C14         -6.7540     0.7420    -1.2300 c3         1 9HO      -0.043200
     17 C15         -6.8540     0.0450     0.1440 c3         1 9HO      -0.072400
     18 C16         -7.5340    -1.3400     0.0730 c3         1 9HO      -0.076400
     19 C17         -7.6310    -2.0360     1.4490 c3         1 9HO      -0.075400
     20 C18         -8.3100    -3.4180     1.3790 c3         1 9HO      -0.088100
     21 O3          -1.1930     0.0030    -2.2890 oh         1 9HO      -0.652000
     22 H12C         7.4170     0.6640     1.9610 hc         1 9HO       0.014200
     23 H22C         7.8390     0.8600     0.1840 hc         1 9HO       0.014200
     24 H13C         6.3780    -1.0410    -0.3340 hc         1 9HO       0.038200
     25 H23C         5.9740    -1.2300     1.3720 hc         1 9HO       0.038200
     26 H14C         4.9680     1.0740     1.3880 hc         1 9HO       0.023700
     27 H24C         5.3720     1.2620    -0.3190 hc         1 9HO       0.023700
     28 H15C         3.8870    -0.6830    -0.8850 hc         1 9HO       0.035200
     29 H25C         3.4830    -0.8720     0.8210 hc         1 9HO       0.035200
     30 H16C         2.4780     1.4310     0.8380 hc         1 9HO       0.031200
     31 H26C         2.8810     1.6190    -0.8690 hc         1 9HO       0.031200
     32 H17C         1.3980    -0.3270    -1.4330 hc         1 9HO       0.043200
     33 H27C         0.9910    -0.5140     0.2720 hc         1 9HO       0.043200
     34 H18C         0.0090     1.7990     0.2890 hc         1 9HO       0.041700
     35 H28C         0.3800     1.9780    -1.4230 hc         1 9HO       0.041700
     36 H9          -1.4770    -0.1570    -0.2350 h1         1 9HO       0.079700
     37 H10         -2.0540     2.6560    -0.9480 ha         1 9HO       0.171000
     38 H3          -1.3120     0.7320    -2.9330 ho         1 9HO       0.439000
     39 H11         -4.0120     0.2800    -1.1380 ha         1 9HO       0.179000
     40 H12         -4.4100     3.3850    -1.0210 ha         1 9HO       0.166000
     41 H13         -6.7770     2.9340    -1.1370 ha         1 9HO       0.163000
     42 H114        -7.7650     0.8640    -1.6390 hc         1 9HO       0.044700
     43 H214        -6.2210     0.0920    -1.9340 hc         1 9HO       0.044700
     44 H115        -5.8470    -0.0700     0.5650 hc         1 9HO       0.039700
     45 H215        -7.4150     0.6890     0.8310 hc         1 9HO       0.039700
     46 H116        -8.5430    -1.2250    -0.3440 hc         1 9HO       0.037700
     47 H216        -6.9730    -1.9830    -0.6160 hc         1 9HO       0.037700
     48 H117        -6.6250    -2.1540     1.8680 hc         1 9HO       0.036700
     49 H217        -8.1940    -1.3970     2.1410 hc         1 9HO       0.036700
     50 H118        -8.3560    -3.8720     2.3760 hc         1 9HO       0.030367
     51 H218        -9.3330    -3.3290     0.9950 hc         1 9HO       0.030367
     52 H318        -7.7500    -4.0930     0.7200 hc         1 9HO       0.030367
@<TRIPOS>BOND
     1     1     2 1   
     2     2     3 1   
     3     2     4 1   
     4     4     5 1   
     5     4    22 1   
     6     4    23 1   
     7     5     6 1   
     8     5    24 1   
     9     5    25 1   
    10     6     7 1   
    11     6    26 1   
    12     6    27 1   
    13     7     8 1   
    14     7    28 1   
    15     7    29 1   
    16     8     9 1   
    17     8    30 1   
    18     8    31 1   
    19     9    10 1   
    20     9    32 1   
    21     9    33 1   
    22    10    11 1   
    23    10    34 1   
    24    10    35 1   
    25    11    12 1   
    26    11    21 1   
    27    11    36 1   
    28    12    13 2   
    29    12    37 1   
    30    13    14 1   
    31    13    39 1   
    32    14    15 2   
    33    14    40 1   
    34    15    16 1   
    35    15    41 1   
    36    16    17 1   
    37    16    42 1   
    38    16    43 1   
    39    17    18 1   
    40    17    44 1   
    41    17    45 1   
    42    18    19 1   
    43    18    46 1   
    44    18    47 1   
    45    19    20 1   
    46    19    48 1   
    47    19    49 1   
    48    20    50 1   
    49    20    51 1   
    50    20    52 1   
    51    21    38 1   
@<TRIPOS>SUBSTRUCTURE
     1 9HO         1 TEMP              0 ****  ****    0 ROOT
