@<TRIPOS>MOLECULE
9HO
   52    51     1     0     0
SMALL
abcg2


@<TRIPOS>ATOM
      1 O2           9.1920    -1.0430     0.9300 o          1 9HO      -0.743500
      2 C1           9.2170    -0.1820     0.0280 c          1 9HO       0.717000
      3 O1          10.2370     0.2500    -0.5500 o          1 9HO      -0.743500
      4 C2           7.8780     0.4240    -0.4290 c3         1 9HO      -0.204400
      5 C3           6.6270    -0.1160     0.2450 c3         1 9HO      -0.053400
      6 C4           5.3550     0.5500    -0.2670 c3         1 9HO      -0.079400
      7 C5           4.0860     0.0310     0.3970 c3         1 9HO      -0.074400
      8 C6           2.8240     0.7210    -0.1060 c3         1 9HO      -0.076400
      9 C7           1.5490     0.2100     0.5540 c3         1 9HO      -0.073400
     10 C8           0.3080     0.9490     0.0710 c3         1 9HO      -0.106400
     11 C9          -0.9890     0.4910     0.7440 c3         1 9HO       0.198500
     12 C10         -2.1250     1.3900     0.3530 c2         1 9HO      -0.239200
     13 C11         -3.3080     0.9990    -0.1290 ce         1 9HO      -0.185000
     14 C12         -4.3550     1.9410    -0.4950 ce         1 9HO      -0.178000
     15 C13         -5.5780     1.6400    -0.9480 c2         1 9HO      -0.210200
     16 C14         -6.1630     0.2810    -1.1610 c3         1 9HO      -0.043200
     17 C15         -7.3170     0.0010    -0.1960 c3         1 9HO      -0.072400
     18 C16         -7.9830    -1.3460    -0.4440 c3         1 9HO      -0.076400
     19 C17         -9.1280    -1.6340     0.5200 c3         1 9HO      -0.075400
     20 C18         -9.7910    -2.9800     0.2620 c3         1 9HO      -0.088100
     21 O3          -1.2580    -0.8730     0.5200 oh         1 9HO      -0.652000
     22 H12C         7.9310     1.5100    -0.2840 hc         1 9HO       0.014200
     23 H22C         7.7970     0.2910    -1.5140 hc         1 9HO       0.014200
     24 H13C         6.5580    -1.1970     0.0880 hc         1 9HO       0.038200
     25 H23C         6.6980     0.0250     1.3270 hc         1 9HO       0.038200
     26 H14C         5.4250     1.6330    -0.1120 hc         1 9HO       0.023700
     27 H24C         5.2790     0.4080    -1.3510 hc         1 9HO       0.023700
     28 H15C         4.0020    -1.0490     0.2320 hc         1 9HO       0.035200
     29 H25C         4.1630     0.1650     1.4820 hc         1 9HO       0.035200
     30 H16C         2.9120     1.8000     0.0620 hc         1 9HO       0.031200
     31 H26C         2.7480     0.5900    -1.1920 hc         1 9HO       0.031200
     32 H17C         1.4460    -0.8620     0.3620 hc         1 9HO       0.043200
     33 H27C         1.6340     0.3210     1.6410 hc         1 9HO       0.043200
     34 H18C         0.4310     2.0200     0.2600 hc         1 9HO       0.041700
     35 H28C         0.2050     0.8450    -1.0160 hc         1 9HO       0.041700
     36 H9          -0.8470     0.5860     1.8290 h1         1 9HO       0.079700
     37 H10         -1.9350     2.4530     0.4860 ha         1 9HO       0.171000
     38 H3          -1.2980    -1.0190    -0.4320 ho         1 9HO       0.439000
     39 H11         -3.5100    -0.0600    -0.2510 ha         1 9HO       0.179000
     40 H12         -4.1040     2.9910    -0.3780 ha         1 9HO       0.166000
     41 H13         -6.2470     2.4680    -1.1630 ha         1 9HO       0.163000
     42 H114        -6.5420     0.2150    -2.1870 hc         1 9HO       0.044700
     43 H214        -5.4080    -0.5010    -1.0620 hc         1 9HO       0.044700
     44 H115        -6.9440     0.0420     0.8320 hc         1 9HO       0.039700
     45 H215        -8.0630     0.7990    -0.2820 hc         1 9HO       0.039700
     46 H116        -8.3570    -1.3820    -1.4740 hc         1 9HO       0.037700
     47 H216        -7.2350    -2.1420    -0.3650 hc         1 9HO       0.037700
     48 H117        -8.7520    -1.6000     1.5470 hc         1 9HO       0.036700
     49 H217        -9.8740    -0.8370     0.4440 hc         1 9HO       0.036700
     50 H118       -10.6040    -3.1690     0.9640 hc         1 9HO       0.030367
     51 H218       -10.2060    -3.0270    -0.7470 hc         1 9HO       0.030367
     52 H318        -9.0740    -3.7980     0.3590 hc         1 9HO       0.030367
@<TRIPOS>BOND
     1     1     2 1   
     2     2     3 1   
     3     2     4 1   
     4     4     5 1   
     5     4    22 1   
     6     4    23 1   
     7     5     6 1   
     8     5    24 1   
     9     5    25 1   
    10     6     7 1   
    11     6    26 1   
    12     6    27 1   
    13     7     8 1   
    14     7    28 1   
    15     7    29 1   
    16     8     9 1   
    17     8    30 1   
    18     8    31 1   
    19     9    10 1   
    20     9    32 1   
    21     9    33 1   
    22    10    11 1   
    23    10    34 1   
    24    10    35 1   
    25    11    12 1   
    26    11    21 1   
    27    11    36 1   
    28    12    13 2   
    29    12    37 1   
    30    13    14 1   
    31    13    39 1   
    32    14    15 2   
    33    14    40 1   
    34    15    16 1   
    35    15    41 1   
    36    16    17 1   
    37    16    42 1   
    38    16    43 1   
    39    17    18 1   
    40    17    44 1   
    41    17    45 1   
    42    18    19 1   
    43    18    46 1   
    44    18    47 1   
    45    19    20 1   
    46    19    48 1   
    47    19    49 1   
    48    20    50 1   
    49    20    51 1   
    50    20    52 1   
    51    21    38 1   
@<TRIPOS>SUBSTRUCTURE
     1 9HO         1 TEMP              0 ****  ****    0 ROOT
