@<TRIPOS>MOLECULE
9HP
   33    36     1     0     0
SMALL
No Charge or Current Charge


@<TRIPOS>ATOM
      1 C1          -0.4940     0.0620    -2.5270 ca         1 9HP      -0.076000
      2 C2           0.0750     0.0130    -3.8190 ca         1 9HP      -0.005000
      3 C3          -0.7690     0.0620    -4.9410 ca         1 9HP      -0.149000
      4 C4          -2.1540     0.1580    -4.7520 ca         1 9HP       0.330900
      5 N5          -2.7230     0.2060    -3.5280 nb         1 9HP      -0.664000
      6 C6          -1.9080     0.1590    -2.4460 ca         1 9HP       0.356900
      7 C10          0.3590     0.0120    -1.3850 ca         1 9HP      -0.053000
      8 C11          1.7700    -0.0860    -1.5600 ca         1 9HP       0.270000
      9 C12          2.2980    -0.1330    -2.8620 ca         1 9HP      -0.065000
     10 C13          1.4630    -0.0840    -3.9860 ca         1 9HP      -0.103000
     11 C16         -0.1410     0.0590    -0.0600 ca         1 9HP      -0.064000
     12 C17          0.7500     0.0070     1.0390 cp         1 9HP      -0.068000
     13 C18          2.1290    -0.0880     0.7400 ca         1 9HP       0.356900
     14 N19          2.6280    -0.1350    -0.5150 nb         1 9HP      -0.657000
     15 C22         -1.4380    -0.5020     4.1490 ca         1 9HP      -0.176500
     16 C23         -0.9780    -0.5440     2.8210 ca         1 9HP      -0.056500
     17 C24          0.2560     0.0520     2.4530 cp         1 9HP      -0.079000
     18 C25          1.0120     0.6890     3.4710 ca         1 9HP      -0.056500
     19 C26          0.5500     0.7300     4.7980 ca         1 9HP      -0.176500
     20 C27         -0.6730     0.1360     5.1360 ca         1 9HP       0.148100
     21 O32         -1.1110     0.1820     6.4250 oh         1 9HP      -0.530100
     22 HC3         -0.3650     0.0260    -5.9490 ha         1 9HP       0.125000
     23 HC4         -2.8300     0.1980    -5.6050 h4         1 9HP       0.021100
     24 HC6         -2.4320     0.2000    -1.4960 h4         1 9HP       0.017100
     25 H12          3.3740    -0.2080    -2.9980 ha         1 9HP       0.135000
     26 H13          1.8980    -0.1220    -4.9820 ha         1 9HP       0.122000
     27 H16         -1.2000     0.1510     0.1440 ha         1 9HP       0.122000
     28 H18          2.8660    -0.1430     1.5410 h4         1 9HP       0.023100
     29 H23         -1.5800    -1.0570     2.0740 ha         1 9HP       0.116500
     30 H25          1.9580     1.1680     3.2300 ha         1 9HP       0.116500
     31 H26          1.1410     1.2270     5.5630 ha         1 9HP       0.124000
     32 H32         -1.9750    -0.2800     6.4760 ho         1 9HP       0.467000
     33 H22         -2.3860    -0.9700     4.4020 ha         1 9HP       0.124000
@<TRIPOS>BOND
     1     1     2 ar  
     2     1     6 ar  
     3     1     7 ar  
     4     2     3 ar  
     5     2    10 ar  
     6     3     4 ar  
     7     3    22 1   
     8     4     5 ar  
     9     4    23 1   
    10     5     6 ar  
    11     6    24 1   
    12     7     8 ar  
    13     7    11 ar  
    14     8     9 ar  
    15     8    14 ar  
    16     9    10 ar  
    17     9    25 1   
    18    10    26 1   
    19    11    12 ar  
    20    11    27 1   
    21    12    13 ar  
    22    12    17 1   
    23    13    14 ar  
    24    13    28 1   
    25    15    16 ar  
    26    15    20 ar  
    27    15    33 1   
    28    16    17 ar  
    29    16    29 1   
    30    17    18 ar  
    31    18    19 ar  
    32    18    30 1   
    33    19    20 ar  
    34    19    31 1   
    35    20    21 1   
    36    21    32 1   
@<TRIPOS>SUBSTRUCTURE
     1 9HP         1 TEMP              0 ****  ****    0 ROOT
