@<TRIPOS>MOLECULE
9HP
   33    36     1     0     0
SMALL
bcc


@<TRIPOS>ATOM
      1 C1          -0.5120     0.0770    -2.5220 ca         1 9HP      -0.141300
      2 C2           0.0750     0.0070    -3.8010 ca         1 9HP      -0.005000
      3 C3          -0.7700     0.0620    -4.9210 ca         1 9HP      -0.232300
      4 C4          -2.1230     0.1850    -4.7330 ca         1 9HP       0.396200
      5 N5          -2.6920     0.2580    -3.5200 nb         1 9HP      -0.664000
      6 C6          -1.9120     0.2050    -2.4660 ca         1 9HP       0.422200
      7 C10          0.3280     0.0180    -1.3500 ca         1 9HP      -0.118300
      8 C11          1.7220    -0.0950    -1.5180 ca         1 9HP       0.400600
      9 C12          2.2820    -0.1580    -2.8320 ca         1 9HP      -0.148300
     10 C13          1.4940    -0.1130    -3.9300 ca         1 9HP      -0.121000
     11 C16         -0.1590     0.0720    -0.0360 ca         1 9HP      -0.082000
     12 C17          0.7090     0.0120     1.0340 cp         1 9HP      -0.133300
     13 C18          2.0830    -0.1010     0.7370 ca         1 9HP       0.422200
     14 N19          2.5710    -0.1500    -0.4760 nb         1 9HP      -0.657000
     15 C22         -1.3930    -0.5500     4.1140 ca         1 9HP      -0.194500
     16 C23         -0.9450    -0.5810     2.8040 ca         1 9HP      -0.074500
     17 C24          0.2400     0.0500     2.4270 cp         1 9HP      -0.079000
     18 C25          0.9660     0.7180     3.4160 ca         1 9HP      -0.074500
     19 C26          0.5290     0.7590     4.7280 ca         1 9HP      -0.194500
     20 C27         -0.6580     0.1220     5.0870 ca         1 9HP       0.148100
     21 O32         -1.0420     0.1870     6.3750 oh         1 9HP      -0.491100
     22 HC3         -0.3570     0.0090    -5.9200 ha         1 9HP       0.143000
     23 HC4         -2.7940     0.2310    -5.5830 h4         1 9HP       0.021100
     24 HC6         -2.4160     0.2710    -1.5080 h4         1 9HP       0.017100
     25 H12          3.3580    -0.2430    -2.9200 ha         1 9HP       0.153000
     26 H13          1.9250    -0.1640    -4.9210 ha         1 9HP       0.140000
     27 H16         -1.2200     0.1780     0.1460 ha         1 9HP       0.140000
     28 H18          2.8020    -0.1720     1.5470 h4         1 9HP       0.023100
     29 H23         -1.5240    -1.1320     2.0730 ha         1 9HP       0.134500
     30 H25          1.8810     1.2380     3.1610 ha         1 9HP       0.134500
     31 H26          1.1020     1.2920     5.4760 ha         1 9HP       0.142000
     32 H32         -1.8700    -0.2890     6.5040 ho         1 9HP       0.428000
     33 H22         -2.3140    -1.0580     4.3770 ha         1 9HP       0.142000
@<TRIPOS>BOND
     1     1     2 ar  
     2     1     6 ar  
     3     1     7 ar  
     4     2     3 ar  
     5     2    10 ar  
     6     3     4 ar  
     7     3    22 1   
     8     4     5 ar  
     9     4    23 1   
    10     5     6 ar  
    11     6    24 1   
    12     7     8 ar  
    13     7    11 ar  
    14     8     9 ar  
    15     8    14 ar  
    16     9    10 ar  
    17     9    25 1   
    18    10    26 1   
    19    11    12 ar  
    20    11    27 1   
    21    12    13 ar  
    22    12    17 1   
    23    13    14 ar  
    24    13    28 1   
    25    15    16 ar  
    26    15    20 ar  
    27    15    33 1   
    28    16    17 ar  
    29    16    29 1   
    30    17    18 ar  
    31    18    19 ar  
    32    18    30 1   
    33    19    20 ar  
    34    19    31 1   
    35    20    21 1   
    36    21    32 1   
@<TRIPOS>SUBSTRUCTURE
     1 9HP         1 TEMP              0 ****  ****    0 ROOT
