@<TRIPOS>MOLECULE
9HQ
   55    58     1     0     0
SMALL
No Charge or Current Charge


@<TRIPOS>ATOM
      1 CBE        -18.2160   -11.9950   -10.7140 c3         1 9HQ      -0.114100
      2 CBD        -17.9000   -10.5660   -11.1870 c3         1 9HQ       0.104000
      3 NAZ        -17.2460    -9.7730   -10.1450 ns         1 9HQ      -0.500900
      4 CAX        -17.8940    -9.1780    -9.0820 c          1 9HQ       0.605100
      5 OBA        -19.1070    -9.2630    -8.9320 o          1 9HQ      -0.625100
      6 CAW        -16.9830    -8.4200    -8.0960 c3         1 9HQ      -0.113700
      7 CAY        -17.0800    -9.0680    -6.6880 c3         1 9HQ      -0.086100
      8 CAJ        -17.3240    -6.9020    -8.0970 c3         1 9HQ       0.104200
      9 NAI        -17.2940    -6.3910    -9.4830 n2         1 9HQ      -0.575900
     10 CAK        -16.4190    -6.0250    -7.2460 cc         1 9HQ       0.393800
     11 NAS        -15.2080    -6.2970    -6.7720 nd         1 9HQ      -0.344000
     12 NAT        -14.6980    -5.1420    -6.2020 nd         1 9HQ      -0.360000
     13 CAU        -15.5860    -4.1700    -6.3630 cc         1 9HQ       0.416800
     14 CAV        -15.3820    -2.7320    -5.9790 c3         1 9HQ      -0.124400
     15 NAL        -16.6790    -4.7130    -6.9890 na         1 9HQ      -0.298800
     16 CAM        -17.7920    -4.0300    -7.4780 ca         1 9HQ       0.066800
     17 CAO        -18.5040    -3.1700    -6.6210 ca         1 9HQ      -0.164000
     18 CAP        -19.6350    -2.4770    -7.0690 ca         1 9HQ       0.172100
     19 OBB        -20.2800    -1.6480    -6.1740 os         1 9HQ      -0.342100
     20 CBC        -21.4510    -0.8930    -6.5340 c3         1 9HQ       0.147900
     21 CAQ        -20.0750    -2.6550    -8.3940 ca         1 9HQ      -0.202000
     22 CAR        -19.3840    -3.5240    -9.2520 ca         1 9HQ      -0.025000
     23 CAN        -18.2360    -4.2170    -8.8120 ca         1 9HQ      -0.229900
     24 CAH        -17.5550    -5.1490    -9.7790 ce         1 9HQ       0.542500
     25 CAE        -17.2760    -4.6540   -11.1690 ca         1 9HQ      -0.138900
     26 CAD        -17.0520    -3.2770   -11.4090 ca         1 9HQ      -0.069000
     27 CAC        -16.7500    -2.8160   -12.7020 ca         1 9HQ      -0.111500
     28 CAB        -16.6510    -3.7220   -13.7670 ca         1 9HQ       0.135000
     29 ClA        -16.2710    -3.1420   -15.3840 cl         1 9HQ      -0.208000
     30 CAG        -16.8440    -5.0930   -13.5420 ca         1 9HQ      -0.111500
     31 CAF        -17.1460    -5.5590   -12.2500 ca         1 9HQ      -0.069000
     32 HBJ        -18.6880   -12.5670   -11.5210 hc         1 9HQ       0.041700
     33 HBI        -17.2980   -12.5150   -10.4160 hc         1 9HQ       0.041700
     34 HBH        -18.9010   -11.9810    -9.8580 hc         1 9HQ       0.041700
     35 HBG        -17.2370   -10.6100   -12.0610 h1         1 9HQ       0.052700
     36 HBF        -18.8280   -10.0640   -11.4930 h1         1 9HQ       0.052700
     37 HBK        -16.2420    -9.6430   -10.1970 hn         1 9HQ       0.315500
     38 HAY        -15.9490    -8.5270    -8.4430 hc         1 9HQ       0.077700
     39 HA1        -16.3650    -8.6240    -5.9870 hc         1 9HQ       0.049367
     40 HA0        -18.0870    -8.9480    -6.2710 hc         1 9HQ       0.049367
     41 HAZ        -16.8630   -10.1420    -6.7470 hc         1 9HQ       0.049367
     42 HAJ        -18.3410    -6.7990    -7.6920 h1         1 9HQ       0.085700
     43 HAX        -14.3140    -2.5040    -5.8800 hc         1 9HQ       0.063033
     44 HAV        -15.7980    -2.0590    -6.7360 hc         1 9HQ       0.063033
     45 HAW        -15.8630    -2.5150    -5.0190 hc         1 9HQ       0.063033
     46 HAO        -18.1910    -3.0420    -5.5890 ha         1 9HQ       0.144000
     47 HBC        -21.8000    -0.3010    -5.6790 h1         1 9HQ       0.048700
     48 HBD        -21.2330    -0.2020    -7.3590 h1         1 9HQ       0.048700
     49 HBE        -22.2670    -1.5610    -6.8400 h1         1 9HQ       0.048700
     50 HAQ        -20.9530    -2.1390    -8.7720 ha         1 9HQ       0.128000
     51 HAR        -19.7500    -3.6630   -10.2680 ha         1 9HQ       0.131000
     52 HAD        -17.1030    -2.5580   -10.5930 ha         1 9HQ       0.130500
     53 HAC        -16.5860    -1.7550   -12.8770 ha         1 9HQ       0.132500
     54 HAG        -16.7580    -5.7950   -14.3670 ha         1 9HQ       0.132500
     55 HAF        -17.2890    -6.6270   -12.0960 ha         1 9HQ       0.130500
@<TRIPOS>BOND
     1     1     2 1   
     2     1    32 1   
     3     1    33 1   
     4     1    34 1   
     5     2     3 1   
     6     2    35 1   
     7     2    36 1   
     8     3     4 1   
     9     3    37 1   
    10     4     5 2   
    11     4     6 1   
    12     6     7 1   
    13     6     8 1   
    14     6    38 1   
    15     7    39 1   
    16     7    40 1   
    17     7    41 1   
    18     8     9 1   
    19     8    10 1   
    20     8    42 1   
    21     9    24 2   
    22    10    11 2   
    23    10    15 1   
    24    11    12 1   
    25    12    13 2   
    26    13    14 1   
    27    13    15 1   
    28    14    43 1   
    29    14    44 1   
    30    14    45 1   
    31    15    16 1   
    32    16    17 ar  
    33    16    23 ar  
    34    17    18 ar  
    35    17    46 1   
    36    18    19 1   
    37    18    21 ar  
    38    19    20 1   
    39    20    47 1   
    40    20    48 1   
    41    20    49 1   
    42    21    22 ar  
    43    21    50 1   
    44    22    23 ar  
    45    22    51 1   
    46    23    24 1   
    47    24    25 1   
    48    25    26 ar  
    49    25    31 ar  
    50    26    27 ar  
    51    26    52 1   
    52    27    28 ar  
    53    27    53 1   
    54    28    29 1   
    55    28    30 ar  
    56    30    31 ar  
    57    30    54 1   
    58    31    55 1   
@<TRIPOS>SUBSTRUCTURE
     1 9HQ         1 TEMP              0 ****  ****    0 ROOT
