@<TRIPOS>MOLECULE
9HQ
   55    58     1     0     0
SMALL
abcg2


@<TRIPOS>ATOM
      1 CBE        -18.1240   -11.9010   -10.7450 c3         1 9HQ      -0.114100
      2 CBD        -17.7370   -10.4840   -11.1560 c3         1 9HQ       0.104000
      3 NAZ        -17.1020    -9.7370   -10.0790 ns         1 9HQ      -0.500900
      4 CAX        -17.7800    -8.9930    -9.1900 c          1 9HQ       0.605100
      5 OBA        -19.0060    -8.8530    -9.2270 o          1 9HQ      -0.625100
      6 CAW        -16.9400    -8.3330    -8.1010 c3         1 9HQ      -0.113700
      7 CAY        -17.2730    -8.9650    -6.7470 c3         1 9HQ      -0.086100
      8 CAJ        -17.2300    -6.8310    -8.1260 c3         1 9HQ       0.104200
      9 NAI        -17.0340    -6.3070    -9.4810 n2         1 9HQ      -0.575900
     10 CAK        -16.3430    -6.0350    -7.2300 cc         1 9HQ       0.393800
     11 NAS        -15.2120    -6.3520    -6.6660 nd         1 9HQ      -0.344000
     12 NAT        -14.7240    -5.2110    -6.0460 nd         1 9HQ      -0.360000
     13 CAU        -15.5720    -4.2350    -6.2530 cc         1 9HQ       0.416800
     14 CAV        -15.4040    -2.8370    -5.7820 c3         1 9HQ      -0.124400
     15 NAL        -16.6260    -4.7080    -7.0050 na         1 9HQ      -0.298800
     16 CAM        -17.7750    -4.0350    -7.4950 ca         1 9HQ       0.066800
     17 CAO        -18.4630    -3.1800    -6.6530 ca         1 9HQ      -0.164000
     18 CAP        -19.5890    -2.4940    -7.1120 ca         1 9HQ       0.172100
     19 OBB        -20.1870    -1.6810    -6.2170 os         1 9HQ      -0.342100
     20 CBC        -21.3530    -0.9560    -6.6260 c3         1 9HQ       0.147900
     21 CAQ        -20.0270    -2.6870    -8.4250 ca         1 9HQ      -0.202000
     22 CAR        -19.3240    -3.5440    -9.2540 ca         1 9HQ      -0.025000
     23 CAN        -18.1910    -4.2410    -8.8250 ca         1 9HQ      -0.229900
     24 CAH        -17.4900    -5.1460    -9.7690 ce         1 9HQ       0.542500
     25 CAE        -17.3120    -4.6760   -11.1690 ca         1 9HQ      -0.138900
     26 CAD        -17.0690    -3.3310   -11.4540 ca         1 9HQ      -0.069000
     27 CAC        -16.8590    -2.9070   -12.7590 ca         1 9HQ      -0.111500
     28 CAB        -16.9090    -3.8400   -13.7850 ca         1 9HQ       0.135000
     29 CLA        -16.6610    -3.3130   -15.4340 cl         1 9HQ      -0.208000
     30 CAG        -17.1570    -5.1840   -13.5310 ca         1 9HQ      -0.111500
     31 CAF        -17.3520    -5.5950   -12.2210 ca         1 9HQ      -0.069000
     32 HBJ        -18.5880   -12.4230   -11.5840 hc         1 9HQ       0.041700
     33 HBI        -17.2450   -12.4680   -10.4320 hc         1 9HQ       0.041700
     34 HBH        -18.8340   -11.8820    -9.9170 hc         1 9HQ       0.041700
     35 HBG        -17.0390   -10.5080   -11.9930 h1         1 9HQ       0.052700
     36 HBF        -18.6170    -9.9250   -11.4700 h1         1 9HQ       0.052700
     37 HBK        -16.1040    -9.8200    -9.9660 hn         1 9HQ       0.315500
     38 HAY        -15.8820    -8.4800    -8.3230 hc         1 9HQ       0.077700
     39 HA1        -16.6630    -8.5270    -5.9590 hc         1 9HQ       0.049367
     40 HA0        -18.3250    -8.8100    -6.5000 hc         1 9HQ       0.049367
     41 HAZ        -17.0810   -10.0390    -6.7710 hc         1 9HQ       0.049367
     42 HAJ        -18.2690    -6.6720    -7.8100 h1         1 9HQ       0.085700
     43 HAX        -14.3640    -2.6890    -5.5000 hc         1 9HQ       0.063033
     44 HAV        -15.6700    -2.1250    -6.5640 hc         1 9HQ       0.063033
     45 HAW        -16.0290    -2.6300    -4.9120 hc         1 9HQ       0.063033
     46 HAO        -18.1520    -3.0450    -5.6280 ha         1 9HQ       0.144000
     47 HBC        -21.6540    -0.3730    -5.7600 h1         1 9HQ       0.048700
     48 HBD        -21.1220    -0.2900    -7.4600 h1         1 9HQ       0.048700
     49 HBE        -22.1550    -1.6400    -6.9090 h1         1 9HQ       0.048700
     50 HAQ        -20.9020    -2.1800    -8.8020 ha         1 9HQ       0.128000
     51 HAR        -19.6680    -3.6840   -10.2690 ha         1 9HQ       0.131000
     52 HAD        -17.0290    -2.6060   -10.6520 ha         1 9HQ       0.130500
     53 HAC        -16.6590    -1.8670   -12.9750 ha         1 9HQ       0.132500
     54 HAG        -17.2020    -5.8940   -14.3450 ha         1 9HQ       0.132500
     55 HAF        -17.5450    -6.6360   -12.0060 ha         1 9HQ       0.130500
@<TRIPOS>BOND
     1     1     2 1   
     2     1    32 1   
     3     1    33 1   
     4     1    34 1   
     5     2     3 1   
     6     2    35 1   
     7     2    36 1   
     8     3     4 1   
     9     3    37 1   
    10     4     5 2   
    11     4     6 1   
    12     6     7 1   
    13     6     8 1   
    14     6    38 1   
    15     7    39 1   
    16     7    40 1   
    17     7    41 1   
    18     8     9 1   
    19     8    10 1   
    20     8    42 1   
    21     9    24 2   
    22    10    11 2   
    23    10    15 1   
    24    11    12 1   
    25    12    13 2   
    26    13    14 1   
    27    13    15 1   
    28    14    43 1   
    29    14    44 1   
    30    14    45 1   
    31    15    16 1   
    32    16    17 ar  
    33    16    23 ar  
    34    17    18 ar  
    35    17    46 1   
    36    18    19 1   
    37    18    21 ar  
    38    19    20 1   
    39    20    47 1   
    40    20    48 1   
    41    20    49 1   
    42    21    22 ar  
    43    21    50 1   
    44    22    23 ar  
    45    22    51 1   
    46    23    24 1   
    47    24    25 1   
    48    25    26 ar  
    49    25    31 ar  
    50    26    27 ar  
    51    26    52 1   
    52    27    28 ar  
    53    27    53 1   
    54    28    29 1   
    55    28    30 ar  
    56    30    31 ar  
    57    30    54 1   
    58    31    55 1   
@<TRIPOS>SUBSTRUCTURE
     1 9HQ         1 TEMP              0 ****  ****    0 ROOT
