@<TRIPOS>MOLECULE
9HR
   70    72     1     0     0
SMALL
No Charge or Current Charge


@<TRIPOS>ATOM
      1 N1          32.0260    10.4480    63.9450 nb         1 9HR      -0.270000
      2 N3          26.4470     3.7340    62.0390 n3         1 9HR      -0.712600
      3 C4          37.3120    16.2880    67.2370 ca         1 9HR       0.115100
      4 C5          36.6140    15.3680    68.0410 ca         1 9HR       0.065000
      5 C6          35.7510    14.4340    67.4530 ca         1 9HR      -0.095000
      6 C7          35.5580    14.3980    66.0510 cp         1 9HR      -0.045000
      7 C8          34.6290    13.3780    65.4830 cp         1 9HR      -0.001000
      8 C10         32.5830    12.7930    64.2480 ca         1 9HR       0.336000
      9 C13         29.8370    14.5150    62.1140 c3         1 9HR       0.157600
     10 C15         32.3620     9.1630    64.1690 ca         1 9HR       0.381900
     11 C17         29.6540     7.0150    62.5350 c3         1 9HR      -0.098400
     12 C20         27.2390     4.9230    62.4470 c3         1 9HR       0.163800
     13 C21         27.1950     2.7780    61.1870 c3         1 9HR       0.149100
     14 C22         25.8200     3.0620    63.1990 c3         1 9HR       0.149100
     15 C24         34.0110    11.0310    65.1490 ca         1 9HR      -0.156000
     16 O           38.1590    17.2030    67.7970 oh         1 9HR      -0.527100
     17 C3          37.1430    16.2610    65.8450 ca         1 9HR      -0.134000
     18 C2          36.2760    15.3260    65.2370 ca         1 9HR      -0.035300
     19 C1          36.1730    15.3330    63.7100 c3         1 9HR      -0.031100
     20 C           36.8970    14.1400    63.0570 c3         1 9HR      -0.088100
     21 C25         34.8850    12.0020    65.6670 ca         1 9HR      -0.114000
     22 C14         32.8500    11.4100    64.4330 ca         1 9HR       0.033000
     23 N           31.4370    13.2020    63.5490 nu         1 9HR      -0.933200
     24 C11         31.2840    14.4010    62.6940 c3         1 9HR       0.226500
     25 C12         32.3350    14.3640    61.5630 c3         1 9HR      -0.128100
     26 C9          33.4610    13.7530    64.7820 ca         1 9HR      -0.186000
     27 C23         34.2660     9.6580    65.3260 ca         1 9HR       0.165900
     28 N4          33.4400     8.7170    64.8350 nb         1 9HR      -0.226000
     29 N2          31.5210     8.1800    63.6680 nu         1 9HR      -0.929100
     30 C16         30.2830     8.3740    62.8980 c3         1 9HR       0.238800
     31 C18         28.3460     7.1590    61.7210 c3         1 9HR      -0.071400
     32 C19         27.7220     5.8140    61.2760 c3         1 9HR      -0.076400
     33 H2          35.2170    13.7310    68.0870 ha         1 9HR       0.136000
     34 H3          29.7780    15.4150    61.4880 h1         1 9HR       0.020700
     35 H4          29.6440    13.6510    61.4640 h1         1 9HR       0.020700
     36 H5          29.4510     6.4600    63.4590 hc         1 9HR       0.045700
     37 H6          30.3750     6.4270    61.9540 hc         1 9HR       0.045700
     38 H7          28.1110     4.6010    63.0330 h1         1 9HR       0.028700
     39 H8          26.6250     5.5510    63.1060 h1         1 9HR       0.028700
     40 H9          26.5630     1.9200    60.9220 h1         1 9HR       0.030033
     41 H10         27.5190     3.2490    60.2500 h1         1 9HR       0.030033
     42 H11         28.0840     2.4000    61.7110 h1         1 9HR       0.030033
     43 H12         25.2000     3.7670    63.7700 h1         1 9HR       0.030033
     44 H13         25.1740     2.2380    62.8690 h1         1 9HR       0.030033
     45 H14         26.5830     2.6510    63.8740 h1         1 9HR       0.030033
     46 H15         38.1490    17.0690    68.7710 ho         1 9HR       0.477000
     47 H16         37.6970    16.9680    65.2340 ha         1 9HR       0.130000
     48 H17         36.6030    16.2570    63.3040 hc         1 9HR       0.047700
     49 H18         35.1270    15.3400    63.3890 hc         1 9HR       0.047700
     50 H19         36.8310    14.2050    61.9640 hc         1 9HR       0.037700
     51 H20         37.9570    14.1320    63.3370 hc         1 9HR       0.037700
     52 H21         36.4510    13.1890    63.3680 hc         1 9HR       0.037700
     53 H22         35.7750    11.6940    66.2120 ha         1 9HR       0.118000
     54 H23         30.7820    12.4420    63.3610 hn         1 9HR       0.500000
     55 H24         31.4650    15.3050    63.2930 h1         1 9HR       0.072700
     56 H25         27.9670    14.6330    62.7100 ho         1 9HR       0.442000
     57 H26         32.2440    15.2530    60.9280 hc         1 9HR       0.043367
     58 H27         33.3530    14.3460    61.9670 hc         1 9HR       0.043367
     59 H28         32.1990    13.4770    60.9330 hc         1 9HR       0.043367
     60 H29         33.2370    14.8080    64.6670 ha         1 9HR       0.119000
     61 H30         35.1430     9.3050    65.8670 h4         1 9HR       0.022100
     62 H31         31.8130     7.2210    63.8580 hn         1 9HR       0.505000
     63 H32         30.4980     8.9320    61.9750 h1         1 9HR       0.048700
     64 H33         29.5630     8.9600    63.4860 h1         1 9HR       0.048700
     65 H34         28.5510     7.7580    60.8250 hc         1 9HR       0.042200
     66 H35         27.6100     7.7200    62.3110 hc         1 9HR       0.042200
     67 H36         26.8670     6.0280    60.6240 hc         1 9HR       0.048200
     68 H37         28.4550     5.2690    60.6700 hc         1 9HR       0.048200
     69 F           36.7710    15.3790    69.3850 f          1 9HR      -0.188000
     70 O1          28.8420    14.5790    63.1530 oh         1 9HR      -0.644000
@<TRIPOS>BOND
     1     1    10 ar  
     2     1    22 ar  
     3     2    12 1   
     4     2    13 1   
     5     2    14 1   
     6     3     4 ar  
     7     3    16 1   
     8     3    17 ar  
     9     4     5 ar  
    10     4    69 1   
    11     5     6 ar  
    12     5    33 1   
    13     6     7 1   
    14     6    18 ar  
    15     7    21 ar  
    16     7    26 ar  
    17     8    22 ar  
    18     8    23 1   
    19     8    26 ar  
    20     9    24 1   
    21     9    34 1   
    22     9    35 1   
    23     9    70 1   
    24    10    28 ar  
    25    10    29 1   
    26    11    30 1   
    27    11    31 1   
    28    11    36 1   
    29    11    37 1   
    30    12    32 1   
    31    12    38 1   
    32    12    39 1   
    33    13    40 1   
    34    13    41 1   
    35    13    42 1   
    36    14    43 1   
    37    14    44 1   
    38    14    45 1   
    39    15    21 ar  
    40    15    22 ar  
    41    15    27 ar  
    42    16    46 1   
    43    17    18 ar  
    44    17    47 1   
    45    18    19 1   
    46    19    20 1   
    47    19    48 1   
    48    19    49 1   
    49    20    50 1   
    50    20    51 1   
    51    20    52 1   
    52    21    53 1   
    53    23    24 1   
    54    23    54 1   
    55    24    25 1   
    56    24    55 1   
    57    25    57 1   
    58    25    58 1   
    59    25    59 1   
    60    26    60 1   
    61    27    28 ar  
    62    27    61 1   
    63    29    30 1   
    64    29    62 1   
    65    30    63 1   
    66    30    64 1   
    67    31    32 1   
    68    31    65 1   
    69    31    66 1   
    70    32    67 1   
    71    32    68 1   
    72    56    70 1   
@<TRIPOS>SUBSTRUCTURE
     1 9HR         1 TEMP              0 ****  ****    0 ROOT
