@<TRIPOS>MOLECULE
9HR
   70    72     1     0     0
SMALL
bcc


@<TRIPOS>ATOM
      1 N1          31.7970    10.5020    64.2960 nb         1 9HR      -0.796000
      2 N3          26.7660     3.8410    61.6700 n3         1 9HR      -0.712600
      3 C4          37.3960    16.3390    66.7540 ca         1 9HR       0.115100
      4 C5          36.6190    15.6240    67.6550 ca         1 9HR       0.029900
      5 C6          35.7030    14.6850    67.2390 ca         1 9HR      -0.113000
      6 C7          35.5300    14.4180    65.8830 cp         1 9HR      -0.045000
      7 C8          34.5500    13.3770    65.4890 cp         1 9HR      -0.001000
      8 C10         32.5090    12.7850    64.2640 ca         1 9HR       0.132300
      9 C13         29.8260    14.3800    62.2340 c3         1 9HR       0.134400
     10 C15         31.9890     9.2640    64.6980 ca         1 9HR       0.907900
     11 C17         29.4690     7.1970    62.9210 c3         1 9HR      -0.098400
     12 C20         27.4750     4.9360    62.3090 c3         1 9HR       0.163800
     13 C21         27.5330     3.2290    60.6060 c3         1 9HR       0.149100
     14 C22         26.3740     2.8490    62.6470 c3         1 9HR       0.149100
     15 C24         33.7700    11.1120    65.5290 ca         1 9HR      -0.286600
     16 O           38.2980    17.2670    67.1210 oh         1 9HR      -0.488100
     17 C3          37.2230    16.0620    65.4030 ca         1 9HR      -0.152000
     18 C2          36.3090    15.1160    64.9480 ca         1 9HR      -0.035300
     19 C1          36.2650    14.8100    63.4730 c3         1 9HR      -0.031100
     20 C           37.0000    13.5160    63.1320 c3         1 9HR      -0.088100
     21 C25         34.7060    12.0870    65.9280 ca         1 9HR      -0.132000
     22 C14         32.6850    11.4310    64.6990 ca         1 9HR       0.426600
     23 N           31.4120    13.0630    63.5060 nu         1 9HR      -0.739600
     24 C11         31.2560    14.2760    62.7350 c3         1 9HR       0.226500
     25 C12         32.2240    14.3550    61.5560 c3         1 9HR      -0.128100
     26 C9          33.4470    13.7170    64.6710 ca         1 9HR      -0.204000
     27 C23         33.8450     9.7510    65.9090 ca         1 9HR       0.494200
     28 N4          32.9970     8.8480    65.5190 nb         1 9HR      -0.752000
     29 N2          31.1570     8.2940    64.2860 nu         1 9HR      -0.873900
     30 C16         29.9830     8.5150    63.4770 c3         1 9HR       0.238800
     31 C18         28.1770     7.3760    62.1330 c3         1 9HR      -0.071400
     32 C19         27.7340     6.1200    61.3850 c3         1 9HR      -0.076400
     33 H2          35.1100    14.1620    67.9790 ha         1 9HR       0.154000
     34 H3          29.7530    15.2810    61.6130 h1         1 9HR       0.020700
     35 H4          29.6220    13.5240    61.5730 h1         1 9HR       0.020700
     36 H5          29.3080     6.4960    63.7460 hc         1 9HR       0.045700
     37 H6          30.2370     6.7530    62.2800 hc         1 9HR       0.045700
     38 H7          28.4260     4.5880    62.7490 h1         1 9HR       0.028700
     39 H8          26.8610     5.2820    63.1470 h1         1 9HR       0.028700
     40 H9          26.9570     2.4190    60.1570 h1         1 9HR       0.030033
     41 H10         27.7510     3.9490    59.8180 h1         1 9HR       0.030033
     42 H11         28.4910     2.8070    60.9510 h1         1 9HR       0.030033
     43 H12         25.7480     3.3050    63.4160 h1         1 9HR       0.030033
     44 H13         25.7910     2.0610    62.1690 h1         1 9HR       0.030033
     45 H14         27.2290     2.3720    63.1520 h1         1 9HR       0.030033
     46 H15         38.3220    17.3730    68.0790 ho         1 9HR       0.438000
     47 H16         37.8350    16.6010    64.6880 ha         1 9HR       0.148000
     48 H17         36.7190    15.6380    62.9250 hc         1 9HR       0.047700
     49 H18         35.2360    14.7410    63.1200 hc         1 9HR       0.047700
     50 H19         36.9750    13.3290    62.0580 hc         1 9HR       0.037700
     51 H20         38.0450    13.5670    63.4400 hc         1 9HR       0.037700
     52 H21         36.5460    12.6590    63.6300 hc         1 9HR       0.037700
     53 H22         35.5470    11.8040    66.5490 ha         1 9HR       0.136000
     54 H23         30.9400    12.2420    63.1540 hn         1 9HR       0.444800
     55 H24         31.4390    15.1300    63.3970 h1         1 9HR       0.072700
     56 H25         28.0410    14.4600    62.9780 ho         1 9HR       0.403000
     57 H26         32.1240    15.3050    61.0290 hc         1 9HR       0.043367
     58 H27         33.2590    14.2690    61.8860 hc         1 9HR       0.043367
     59 H28         32.0320    13.5490    60.8440 hc         1 9HR       0.043367
     60 H29         33.3400    14.7520    64.3680 ha         1 9HR       0.137000
     61 H30         34.6500     9.4250    66.5630 h4         1 9HR       0.022100
     62 H31         31.2920     7.3850    64.6990 hn         1 9HR       0.449800
     63 H32         30.2340     9.1890    62.6550 h1         1 9HR       0.048700
     64 H33         29.1950     9.0110    64.0580 h1         1 9HR       0.048700
     65 H34         28.3090     8.1850    61.4080 hc         1 9HR       0.042200
     66 H35         27.3810     7.7000    62.8100 hc         1 9HR       0.042200
     67 H36         26.8170     6.3390    60.8320 hc         1 9HR       0.048200
     68 H37         28.4960     5.8700    60.6420 hc         1 9HR       0.048200
     69 F           36.7730    15.8690    68.9730 f          1 9HR      -0.152900
     70 O1          28.9370    14.4210    63.3240 oh         1 9HR      -0.581800
@<TRIPOS>BOND
     1     1    10 ar  
     2     1    22 ar  
     3     2    12 1   
     4     2    13 1   
     5     2    14 1   
     6     3     4 ar  
     7     3    16 1   
     8     3    17 ar  
     9     4     5 ar  
    10     4    69 1   
    11     5     6 ar  
    12     5    33 1   
    13     6     7 1   
    14     6    18 ar  
    15     7    21 ar  
    16     7    26 ar  
    17     8    22 ar  
    18     8    23 1   
    19     8    26 ar  
    20     9    24 1   
    21     9    34 1   
    22     9    35 1   
    23     9    70 1   
    24    10    28 ar  
    25    10    29 1   
    26    11    30 1   
    27    11    31 1   
    28    11    36 1   
    29    11    37 1   
    30    12    32 1   
    31    12    38 1   
    32    12    39 1   
    33    13    40 1   
    34    13    41 1   
    35    13    42 1   
    36    14    43 1   
    37    14    44 1   
    38    14    45 1   
    39    15    21 ar  
    40    15    22 ar  
    41    15    27 ar  
    42    16    46 1   
    43    17    18 ar  
    44    17    47 1   
    45    18    19 1   
    46    19    20 1   
    47    19    48 1   
    48    19    49 1   
    49    20    50 1   
    50    20    51 1   
    51    20    52 1   
    52    21    53 1   
    53    23    24 1   
    54    23    54 1   
    55    24    25 1   
    56    24    55 1   
    57    25    57 1   
    58    25    58 1   
    59    25    59 1   
    60    26    60 1   
    61    27    28 ar  
    62    27    61 1   
    63    29    30 1   
    64    29    62 1   
    65    30    63 1   
    66    30    64 1   
    67    31    32 1   
    68    31    65 1   
    69    31    66 1   
    70    32    67 1   
    71    32    68 1   
    72    56    70 1   
@<TRIPOS>SUBSTRUCTURE
     1 9HR         1 TEMP              0 ****  ****    0 ROOT
