@<TRIPOS>MOLECULE
9HS
   57    60     1     0     0
SMALL
No Charge or Current Charge


@<TRIPOS>ATOM
      1 C7          -5.4750     1.9820    -0.6950 ca         1 9HS      -0.099000
      2 C9          -2.4820     0.2230    -1.5910 cc         1 9HS       0.499800
      3 N1          -3.3630     1.2250    -1.5420 nd         1 9HS      -0.620100
      4 C2          -3.7160    -1.3170    -0.1990 c          1 9HS       0.571600
      5 N2           2.4070    -1.9540     0.7130 n          1 9HS      -0.413800
      6 C10          0.5780    -3.2410    -0.3940 c6         1 9HS      -0.114900
      7 C4          -5.9220    -0.4390     0.6400 ca         1 9HS      -0.032000
      8 C6          -6.6510     1.7970     0.0470 ca         1 9HS       0.151000
      9 N           -2.5970    -1.0110    -0.9650 n          1 9HS      -0.343300
     10 C           -0.4570    -2.1380    -0.0380 c6         1 9HS       0.174000
     11 O           -1.1060    -2.4920     1.1910 oh         1 9HS      -0.642000
     12 C1          -1.5480    -2.0500    -1.1590 c3         1 9HS       0.063000
     13 C11          1.7510    -3.2840     0.6150 c6         1 9HS       0.100000
     14 C13          4.3270    -0.3140     0.3660 c3         1 9HS      -0.150400
     15 C14          5.8270    -0.1650    -0.0070 c3         1 9HS      -0.003400
     16 C15          6.7550    -0.9070     0.9830 c3         1 9HS      -0.085100
     17 C16          6.2170     1.3120    -0.1130 ca         1 9HS      -0.082300
     18 C17          6.6870     1.8340    -1.3370 ca         1 9HS      -0.107500
     19 C18          7.0450     3.1890    -1.4430 ca         1 9HS      -0.110000
     20 C19          6.9370     4.0350    -0.3280 ca         1 9HS      -0.111000
     21 C20          6.4700     3.5250     0.8950 ca         1 9HS      -0.110000
     22 C21          6.1120     2.1700     1.0020 ca         1 9HS      -0.107500
     23 C22          1.4610    -0.8870     1.1400 c6         1 9HS       0.100000
     24 C23          0.2780    -0.7780     0.1480 c6         1 9HS      -0.114900
     25 C3          -4.7390    -0.2490    -0.1090 ca         1 9HS      -0.206600
     26 C5          -6.8770     0.5870     0.7160 ca         1 9HS      -0.127000
     27 C8          -4.5100     0.9640    -0.7800 ca         1 9HS       0.185400
     28 O1          -3.8280    -2.3860     0.3880 o          1 9HS      -0.509000
     29 O2           4.3000    -2.6030    -0.4060 o          1 9HS      -0.604100
     30 Cl          -7.8440     3.0860     0.1400 cl         1 9HS      -0.187000
     31 H5          -5.3110     2.9250    -1.2090 ha         1 9HS       0.149000
     32 H6          -1.5720     0.3450    -2.1660 h5         1 9HS       0.046800
     33 H7           0.0900    -4.2250    -0.4310 hc         1 9HS       0.057450
     34 H8           0.9840    -3.0600    -1.3990 hc         1 9HS       0.057450
     35 H3          -6.1030    -1.3780     1.1620 ha         1 9HS       0.142000
     36 H           -2.0700    -2.5620     0.9920 ho         1 9HS       0.446000
     37 H2          -2.0250    -3.0340    -1.2680 h1         1 9HS       0.076200
     38 H1          -1.0380    -1.8560    -2.1120 h1         1 9HS       0.076200
     39 H10          2.4700    -4.0590     0.3130 h1         1 9HS       0.064200
     40 H9           1.3740    -3.5710     1.6080 h1         1 9HS       0.064200
     41 H12          3.7150     0.3860    -0.2140 hc         1 9HS       0.059700
     42 H11          4.1330     0.0210     1.3910 hc         1 9HS       0.059700
     43 H13          5.9680    -0.6310    -0.9920 hc         1 9HS       0.074700
     44 H16          6.6300    -0.5270     2.0040 hc         1 9HS       0.039700
     45 H14          6.5440    -1.9830     0.9940 hc         1 9HS       0.039700
     46 H15          7.8050    -0.7740     0.6950 hc         1 9HS       0.039700
     47 H17          6.7760     1.1900    -2.2090 ha         1 9HS       0.110500
     48 H18          7.4060     3.5820    -2.3910 ha         1 9HS       0.112000
     49 H19          7.2140     5.0840    -0.4100 ha         1 9HS       0.112000
     50 H20          6.3850     4.1800     1.7600 ha         1 9HS       0.112000
     51 H21          5.7520     1.7900     1.9550 ha         1 9HS       0.110500
     52 H23          1.0770    -1.1330     2.1410 h1         1 9HS       0.064200
     53 H22          1.9490     0.0920     1.2240 h1         1 9HS       0.064200
     54 H24          0.6580    -0.4270    -0.8220 hc         1 9HS       0.057450
     55 H25         -0.4210    -0.0100     0.5050 hc         1 9HS       0.057450
     56 H4          -7.7880     0.4440     1.2910 ha         1 9HS       0.137000
     57 C12          3.6960    -1.7110     0.1790 c          1 9HS       0.605100
@<TRIPOS>BOND
     1     1     8 ar  
     2     1    27 ar  
     3     1    31 1   
     4     2     3 2   
     5     2     9 1   
     6     2    32 1   
     7     3    27 1   
     8     4     9 1   
     9     4    25 1   
    10     4    28 2   
    11     5    13 1   
    12     5    23 1   
    13     5    57 1   
    14     6    10 1   
    15     6    13 1   
    16     6    33 1   
    17     6    34 1   
    18     7    25 ar  
    19     7    26 ar  
    20     7    35 1   
    21     8    26 ar  
    22     8    30 1   
    23     9    12 1   
    24    10    11 1   
    25    10    12 1   
    26    10    24 1   
    27    11    36 1   
    28    12    37 1   
    29    12    38 1   
    30    13    39 1   
    31    13    40 1   
    32    14    15 1   
    33    14    41 1   
    34    14    42 1   
    35    14    57 1   
    36    15    16 1   
    37    15    17 1   
    38    15    43 1   
    39    16    44 1   
    40    16    45 1   
    41    16    46 1   
    42    17    18 ar  
    43    17    22 ar  
    44    18    19 ar  
    45    18    47 1   
    46    19    20 ar  
    47    19    48 1   
    48    20    21 ar  
    49    20    49 1   
    50    21    22 ar  
    51    21    50 1   
    52    22    51 1   
    53    23    24 1   
    54    23    52 1   
    55    23    53 1   
    56    24    54 1   
    57    24    55 1   
    58    25    27 ar  
    59    26    56 1   
    60    29    57 2   
@<TRIPOS>SUBSTRUCTURE
     1 9HS         1 TEMP              0 ****  ****    0 ROOT
