@<TRIPOS>MOLECULE
9HS
   57    60     1     0     0
SMALL
abcg2


@<TRIPOS>ATOM
      1 C7          -5.3870     1.9260    -0.2990 ca         1 9HS      -0.099000
      2 C9          -2.3880     0.3630    -1.3320 cc         1 9HS       0.499800
      3 N1          -3.2460     1.2920    -1.1390 nd         1 9HS      -0.620100
      4 C2          -3.7250    -1.4370    -0.4730 c          1 9HS       0.571600
      5 N2           2.3720    -1.8670     0.6880 n          1 9HS      -0.413800
      6 C10          0.5750    -3.0710    -0.4560 c6         1 9HS      -0.114900
      7 C4          -5.9480    -0.7270     0.3590 ca         1 9HS      -0.032000
      8 C6          -6.5860     1.5740     0.2760 ca         1 9HS       0.151000
      9 N           -2.5350    -0.9530    -1.0060 n          1 9HS      -0.343300
     10 C           -0.4290    -1.9720    -0.1030 c6         1 9HS       0.174000
     11 O           -1.0780    -2.3780     1.0840 oh         1 9HS      -0.642000
     12 C1          -1.4300    -1.8700    -1.2660 c3         1 9HS       0.063000
     13 C11          1.7100    -3.1540     0.5550 c6         1 9HS       0.100000
     14 C13          4.2150    -0.2870     0.3300 c3         1 9HS      -0.150400
     15 C14          5.7300    -0.2330     0.1110 c3         1 9HS      -0.003400
     16 C15          6.4900    -0.8520     1.2840 c3         1 9HS      -0.085100
     17 C16          6.1620     1.1970    -0.1250 ca         1 9HS      -0.082300
     18 C17          6.7300     1.5700    -1.3400 ca         1 9HS      -0.107500
     19 C18          7.1280     2.8810    -1.5740 ca         1 9HS      -0.110000
     20 C19          6.9600     3.8450    -0.5900 ca         1 9HS      -0.111000
     21 C20          6.3940     3.4870     0.6280 ca         1 9HS      -0.110000
     22 C21          6.0020     2.1760     0.8560 ca         1 9HS      -0.107500
     23 C22          1.4700    -0.8140     1.1130 c6         1 9HS       0.100000
     24 C23          0.3210    -0.6540     0.1220 c6         1 9HS      -0.114900
     25 C3          -4.7180    -0.3990    -0.2170 ca         1 9HS      -0.206600
     26 C5          -6.8840     0.2500     0.6100 ca         1 9HS      -0.127000
     27 C8          -4.4350     0.9310    -0.5520 ca         1 9HS       0.185400
     28 O1          -3.8980    -2.6190    -0.2570 o          1 9HS      -0.509000
     29 O2           4.2710    -2.6010    -0.2770 o          1 9HS      -0.604100
     30 CL          -7.7630     2.7980     0.5940 cl         1 9HS      -0.187000
     31 H5          -5.1620     2.9520    -0.5580 ha         1 9HS       0.149000
     32 H6          -1.4470     0.6130    -1.8100 h5         1 9HS       0.046800
     33 H7           0.0600    -4.0340    -0.5090 hc         1 9HS       0.057450
     34 H8           0.9890    -2.8770    -1.4490 hc         1 9HS       0.057450
     35 H3          -6.1680    -1.7550     0.6120 ha         1 9HS       0.142000
     36 H           -1.4870    -1.6150     1.5060 ho         1 9HS       0.446000
     37 H2          -1.8480    -2.8520    -1.4790 h1         1 9HS       0.076200
     38 H1          -0.9190    -1.5340    -2.1690 h1         1 9HS       0.076200
     39 H10          2.4340    -3.9050     0.2520 h1         1 9HS       0.064200
     40 H9           1.3260    -3.4480     1.5350 h1         1 9HS       0.064200
     41 H12          3.7140     0.3430    -0.4130 hc         1 9HS       0.059700
     42 H11          3.9800     0.1520     1.3020 hc         1 9HS       0.059700
     43 H13          5.9700    -0.8010    -0.7910 hc         1 9HS       0.074700
     44 H16          6.2560    -0.3420     2.2200 hc         1 9HS       0.039700
     45 H14          6.2350    -1.9040     1.4060 hc         1 9HS       0.039700
     46 H15          7.5680    -0.7850     1.1300 hc         1 9HS       0.039700
     47 H17          6.8640     0.8260    -2.1160 ha         1 9HS       0.110500
     48 H18          7.5690     3.1490    -2.5250 ha         1 9HS       0.112000
     49 H19          7.2670     4.8680    -0.7690 ha         1 9HS       0.112000
     50 H20          6.2580     4.2310     1.4020 ha         1 9HS       0.112000
     51 H21          5.5660     1.9160     1.8140 ha         1 9HS       0.110500
     52 H23          1.0820    -1.0630     2.1050 h1         1 9HS       0.064200
     53 H22          1.9940     0.1320     1.2120 h1         1 9HS       0.064200
     54 H24          0.7170    -0.2870    -0.8280 hc         1 9HS       0.057450
     55 H25         -0.3540     0.1190     0.5050 hc         1 9HS       0.057450
     56 H4          -7.8350    -0.0020     1.0590 ha         1 9HS       0.137000
     57 C12          3.6290    -1.6840     0.2210 c          1 9HS       0.605100
@<TRIPOS>BOND
     1     1     8 ar  
     2     1    27 ar  
     3     1    31 1   
     4     2     3 2   
     5     2     9 1   
     6     2    32 1   
     7     3    27 1   
     8     4     9 1   
     9     4    25 1   
    10     4    28 2   
    11     5    13 1   
    12     5    23 1   
    13     5    57 1   
    14     6    10 1   
    15     6    13 1   
    16     6    33 1   
    17     6    34 1   
    18     7    25 ar  
    19     7    26 ar  
    20     7    35 1   
    21     8    26 ar  
    22     8    30 1   
    23     9    12 1   
    24    10    11 1   
    25    10    12 1   
    26    10    24 1   
    27    11    36 1   
    28    12    37 1   
    29    12    38 1   
    30    13    39 1   
    31    13    40 1   
    32    14    15 1   
    33    14    41 1   
    34    14    42 1   
    35    14    57 1   
    36    15    16 1   
    37    15    17 1   
    38    15    43 1   
    39    16    44 1   
    40    16    45 1   
    41    16    46 1   
    42    17    18 ar  
    43    17    22 ar  
    44    18    19 ar  
    45    18    47 1   
    46    19    20 ar  
    47    19    48 1   
    48    20    21 ar  
    49    20    49 1   
    50    21    22 ar  
    51    21    50 1   
    52    22    51 1   
    53    23    24 1   
    54    23    52 1   
    55    23    53 1   
    56    24    54 1   
    57    24    55 1   
    58    25    27 ar  
    59    26    56 1   
    60    29    57 2   
@<TRIPOS>SUBSTRUCTURE
     1 9HS         1 TEMP              0 ****  ****    0 ROOT
