@<TRIPOS>MOLECULE
9HT
   58    61     1     0     0
SMALL
No Charge or Current Charge


@<TRIPOS>ATOM
      1 CAA         -1.1170    -4.2310    -0.9090 c3         1 9HT      -0.112100
      2 CAN          0.3060    -4.2830    -1.4930 c3         1 9HT       0.106000
      3 NAS          1.0980    -3.1240    -1.0840 ns         1 9HT      -0.509900
      4 CAU          1.6910    -2.9740     0.1510 c          1 9HT       0.600100
      5 OAE          1.6940    -3.8660     0.9890 o          1 9HT      -0.592100
      6 CBD          2.3440    -1.6000     0.3910 c3         1 9HT      -0.149700
      7 CAO          3.8730    -1.7300     0.6480 c3         1 9HT      -0.067400
      8 CAB          4.6420    -2.3990    -0.5110 c3         1 9HT      -0.092100
      9 CBE          1.6000    -0.8520     1.5390 c3         1 9HT       0.100200
     10 NAP          0.1390    -0.8310     1.2930 n2         1 9HT      -0.552900
     11 CBC          2.1080     0.5500     1.8160 cc         1 9HT       0.375800
     12 NAR          2.6850     0.9780     2.9300 nd         1 9HT      -0.333000
     13 NAQ          2.9050     2.3400     2.8070 nd         1 9HT      -0.355000
     14 CAY          2.4560     2.7310     1.6230 cc         1 9HT       0.403800
     15 CAD          2.4300     4.1530     1.1340 c3         1 9HT      -0.124400
     16 NBF          1.9690     1.6210     0.9790 na         1 9HT      -0.273800
     17 CBB          1.4240     1.5540    -0.3050 ca         1 9HT      -0.016200
     18 CAL          2.0800     2.1960    -1.3770 ca         1 9HT      -0.079000
     19 CAI          1.5700     2.1220    -2.6820 ca         1 9HT      -0.178000
     20 CAX          0.3980     1.3850    -2.9360 ca         1 9HT       0.142100
     21 OAT         -0.1480     1.2640    -4.1980 os         1 9HT      -0.334100
     22 CAC          0.4360     1.8970    -5.3510 c3         1 9HT       0.145900
     23 CAM         -0.2440     0.7260    -1.8790 ca         1 9HT      -0.126000
     24 CBA          0.2500     0.8000    -0.5560 ca         1 9HT      -0.146900
     25 CAV         -0.4670     0.0270     0.5200 ce         1 9HT       0.530500
     26 CAZ         -1.9670     0.0940     0.5500 ca         1 9HT      -0.144900
     27 CAJ         -2.7350    -0.9850     1.0490 ca         1 9HT      -0.067500
     28 CAG         -4.1370    -0.9000     1.1040 ca         1 9HT      -0.113000
     29 CAW         -4.7880     0.2680     0.6790 ca         1 9HT       0.133000
     30 Cl          -6.5420     0.3730     0.7520 cl         1 9HT      -0.198000
     31 CAH         -4.0390     1.3560     0.2070 ca         1 9HT      -0.113000
     32 CAK         -2.6370     1.2740     0.1490 ca         1 9HT      -0.067500
     33 HAA         -1.6350    -3.3210    -1.2350 hc         1 9HT       0.042033
     34 HAB         -1.6980    -5.0980    -1.2460 hc         1 9HT       0.042033
     35 HAC         -1.0890    -4.2400     0.1870 hc         1 9HT       0.042033
     36 HAT          0.8090    -5.2020    -1.1640 h1         1 9HT       0.051700
     37 HAU          0.2500    -4.3000    -2.5900 h1         1 9HT       0.051700
     38 HBF          1.1540    -2.3330    -1.7140 hn         1 9HT       0.312500
     39 HBD          2.2290    -1.0160    -0.5280 hc         1 9HT       0.054700
     40 HAW          4.3030    -0.7340     0.8100 hc         1 9HT       0.061700
     41 HAV          4.0460    -2.3010     1.5690 hc         1 9HT       0.061700
     42 HAD          4.3120    -3.4340    -0.6600 hc         1 9HT       0.035367
     43 HAF          4.4920    -1.8470    -1.4460 hc         1 9HT       0.035367
     44 HAE          5.7170    -2.4150    -0.2930 hc         1 9HT       0.035367
     45 HBE          1.7860    -1.4240     2.4600 h1         1 9HT       0.126700
     46 HAJ          3.3310     4.3810     0.5550 hc         1 9HT       0.060700
     47 HAK          1.5540     4.3370     0.5010 hc         1 9HT       0.060700
     48 HAL          2.3840     4.8520     1.9760 hc         1 9HT       0.060700
     49 HAR          3.0040     2.7430    -1.2070 ha         1 9HT       0.131000
     50 HAO          2.1020     2.6320    -3.4800 ha         1 9HT       0.128000
     51 HAG         -0.1560     1.6760    -6.2470 h1         1 9HT       0.047367
     52 HAH          0.4660     2.9870    -5.2240 h1         1 9HT       0.047367
     53 HAI          1.4580     1.5340    -5.5200 h1         1 9HT       0.047367
     54 HAS         -1.1340     0.1400    -2.0970 ha         1 9HT       0.145000
     55 HAP         -2.2510    -1.9000     1.3850 ha         1 9HT       0.132000
     56 HAM         -4.7190    -1.7380     1.4780 ha         1 9HT       0.133000
     57 HAN         -4.5450     2.2640    -0.1100 ha         1 9HT       0.133000
     58 HAQ         -2.0730     2.1360    -0.2040 ha         1 9HT       0.132000
@<TRIPOS>BOND
     1     1     2 1   
     2     1    33 1   
     3     1    34 1   
     4     1    35 1   
     5     2     3 1   
     6     2    36 1   
     7     2    37 1   
     8     3     4 1   
     9     3    38 1   
    10     4     5 2   
    11     4     6 1   
    12     6     7 1   
    13     6     9 1   
    14     6    39 1   
    15     7     8 1   
    16     7    40 1   
    17     7    41 1   
    18     8    42 1   
    19     8    43 1   
    20     8    44 1   
    21     9    10 1   
    22     9    11 1   
    23     9    45 1   
    24    10    25 2   
    25    11    12 2   
    26    11    16 1   
    27    12    13 1   
    28    13    14 2   
    29    14    15 1   
    30    14    16 1   
    31    15    46 1   
    32    15    47 1   
    33    15    48 1   
    34    16    17 1   
    35    17    18 ar  
    36    17    24 ar  
    37    18    19 ar  
    38    18    49 1   
    39    19    20 ar  
    40    19    50 1   
    41    20    21 1   
    42    20    23 ar  
    43    21    22 1   
    44    22    51 1   
    45    22    52 1   
    46    22    53 1   
    47    23    24 ar  
    48    23    54 1   
    49    24    25 1   
    50    25    26 1   
    51    26    27 ar  
    52    26    32 ar  
    53    27    28 ar  
    54    27    55 1   
    55    28    29 ar  
    56    28    56 1   
    57    29    30 1   
    58    29    31 ar  
    59    31    32 ar  
    60    31    57 1   
    61    32    58 1   
@<TRIPOS>SUBSTRUCTURE
     1 9HT         1 TEMP              0 ****  ****    0 ROOT
