@<TRIPOS>MOLECULE
9HT
   58    61     1     0     0
SMALL
bcc


@<TRIPOS>ATOM
      1 CAA         -0.8890    -3.5210    -2.4000 c3         1 9HT      -0.112100
      2 CAN         -0.0660    -3.8670    -1.1750 c3         1 9HT       0.106000
      3 NAS          0.8310    -2.7770    -0.8410 ns         1 9HT      -0.576900
      4 CAU          1.5120    -2.7150     0.3100 c          1 9HT       0.667100
      5 OAE          1.4580    -3.5890     1.1640 o          1 9HT      -0.592100
      6 CBD          2.3490    -1.4600     0.5150 c3         1 9HT      -0.149700
      7 CAO          3.8000    -1.8170     0.8330 c3         1 9HT      -0.067400
      8 CAB          4.5070    -2.4970    -0.3310 c3         1 9HT      -0.092100
      9 CBE          1.7130    -0.6680     1.6810 c3         1 9HT       0.100200
     10 NAP          0.2630    -0.5960     1.6210 n2         1 9HT      -0.552900
     11 CBC          2.2560     0.7060     1.8550 cc         1 9HT       0.375800
     12 NAR          2.8750     1.1750     2.8930 nd         1 9HT      -0.333000
     13 NAQ          3.0790     2.5020     2.6880 nd         1 9HT      -0.355000
     14 CAY          2.5760     2.8230     1.5300 cc         1 9HT       0.403800
     15 CAD          2.5490     4.1880     0.9550 c3         1 9HT      -0.124400
     16 NBF          2.0410     1.7050     0.9530 na         1 9HT      -0.273800
     17 CBB          1.4290     1.5490    -0.3060 ca         1 9HT      -0.016200
     18 CAL          1.9900     2.1430    -1.4250 ca         1 9HT      -0.097000
     19 CAI          1.4310     1.9790    -2.6810 ca         1 9HT      -0.196000
     20 CAX          0.2950     1.1880    -2.8330 ca         1 9HT       0.142100
     21 OAT         -0.3170     0.9510    -3.9990 os         1 9HT      -0.310900
     22 CAC          0.2290     1.5210    -5.1770 c3         1 9HT       0.122700
     23 CAM         -0.2630     0.5840    -1.7080 ca         1 9HT      -0.144000
     24 CBA          0.2850     0.7530    -0.4430 ca         1 9HT      -0.146900
     25 CAV         -0.3420     0.0250     0.6920 ce         1 9HT       0.530500
     26 CAZ         -1.8250    -0.0290     0.7140 ca         1 9HT      -0.144900
     27 CAJ         -2.4660    -1.1850     1.1540 ca         1 9HT      -0.085500
     28 CAG         -3.8480    -1.2550     1.2010 ca         1 9HT      -0.131000
     29 CAW         -4.5930    -0.1490     0.8200 ca         1 9HT       0.041400
     30 CL          -6.3210    -0.2280     0.8790 cl         1 9HT      -0.106400
     31 CAH         -3.9790     1.0170     0.3900 ca         1 9HT      -0.131000
     32 CAK         -2.5960     1.0670     0.3310 ca         1 9HT      -0.085500
     33 HAA         -0.2560    -3.3340    -3.2680 hc         1 9HT       0.042033
     34 HAB         -1.5530    -4.3490    -2.6460 hc         1 9HT       0.042033
     35 HAC         -1.5100    -2.6390    -2.2310 hc         1 9HT       0.042033
     36 HAT         -0.7230    -4.0620    -0.3260 h1         1 9HT       0.051700
     37 HAU          0.5040    -4.7830    -1.3520 h1         1 9HT       0.051700
     38 HBF          0.9480    -2.0380    -1.5150 hn         1 9HT       0.312500
     39 HBD          2.3410    -0.8610    -0.3990 hc         1 9HT       0.054700
     40 HAW          4.3350    -0.9020     1.0980 hc         1 9HT       0.061700
     41 HAV          3.8250    -2.4580     1.7170 hc         1 9HT       0.061700
     42 HAD          4.0200    -3.4310    -0.6150 hc         1 9HT       0.035367
     43 HAF          4.5310    -1.8530    -1.2120 hc         1 9HT       0.035367
     44 HAE          5.5380    -2.7350    -0.0680 hc         1 9HT       0.035367
     45 HBE          1.9630    -1.2050     2.5980 h1         1 9HT       0.126700
     46 HAJ          3.3160     4.3310     0.1940 hc         1 9HT       0.060700
     47 HAK          1.5820     4.4150     0.5070 hc         1 9HT       0.060700
     48 HAL          2.7360     4.9070     1.7500 hc         1 9HT       0.060700
     49 HAR          2.8940     2.7290    -1.3340 ha         1 9HT       0.149000
     50 HAO          1.9060     2.4610    -3.5230 ha         1 9HT       0.146000
     51 HAG         -0.4090     1.2000    -5.9960 h1         1 9HT       0.047367
     52 HAH          0.2300     2.6130    -5.1350 h1         1 9HT       0.047367
     53 HAI          1.2460     1.1700    -5.3610 h1         1 9HT       0.047367
     54 HAS         -1.1430    -0.0350    -1.8330 ha         1 9HT       0.163000
     55 HAP         -1.8810    -2.0430     1.4540 ha         1 9HT       0.150000
     56 HAM         -4.3360    -2.1630     1.5270 ha         1 9HT       0.151000
     57 HAN         -4.5670     1.8770     0.1010 ha         1 9HT       0.151000
     58 HAQ         -2.1230     1.9790    -0.0080 ha         1 9HT       0.150000
@<TRIPOS>BOND
     1     1     2 1   
     2     1    33 1   
     3     1    34 1   
     4     1    35 1   
     5     2     3 1   
     6     2    36 1   
     7     2    37 1   
     8     3     4 1   
     9     3    38 1   
    10     4     5 2   
    11     4     6 1   
    12     6     7 1   
    13     6     9 1   
    14     6    39 1   
    15     7     8 1   
    16     7    40 1   
    17     7    41 1   
    18     8    42 1   
    19     8    43 1   
    20     8    44 1   
    21     9    10 1   
    22     9    11 1   
    23     9    45 1   
    24    10    25 2   
    25    11    12 2   
    26    11    16 1   
    27    12    13 1   
    28    13    14 2   
    29    14    15 1   
    30    14    16 1   
    31    15    46 1   
    32    15    47 1   
    33    15    48 1   
    34    16    17 1   
    35    17    18 ar  
    36    17    24 ar  
    37    18    19 ar  
    38    18    49 1   
    39    19    20 ar  
    40    19    50 1   
    41    20    21 1   
    42    20    23 ar  
    43    21    22 1   
    44    22    51 1   
    45    22    52 1   
    46    22    53 1   
    47    23    24 ar  
    48    23    54 1   
    49    24    25 1   
    50    25    26 1   
    51    26    27 ar  
    52    26    32 ar  
    53    27    28 ar  
    54    27    55 1   
    55    28    29 ar  
    56    28    56 1   
    57    29    30 1   
    58    29    31 ar  
    59    31    32 ar  
    60    31    57 1   
    61    32    58 1   
@<TRIPOS>SUBSTRUCTURE
     1 9HT         1 TEMP              0 ****  ****    0 ROOT
