@<TRIPOS>MOLECULE
9HU
   47    50     1     0     0
SMALL
abcg2


@<TRIPOS>ATOM
      1 C01         -6.9920     0.4350     0.3180 ca         1 9HU      -0.101000
      2 C02         -6.8030     1.3950    -0.6690 ca         1 9HU      -0.090000
      3 C03         -5.5450     1.5980    -1.2120 ca         1 9HU      -0.068000
      4 C04         -4.4630     0.8420    -0.7730 ca         1 9HU      -0.122600
      5 C05         -4.6540    -0.1230     0.2210 ca         1 9HU      -0.135600
      6 C06         -5.9210    -0.3220     0.7620 ca         1 9HU      -0.061000
      7 C07         -3.1250     1.0780    -1.3700 c          1 9HU       0.591300
      8 C08         -2.0030     0.2510    -0.8840 ca         1 9HU      -0.123600
      9 C09         -2.2060    -0.7230     0.1140 ca         1 9HU      -0.214600
     10 C10         -3.5260    -0.9400     0.7060 c          1 9HU       0.614300
     11 C11         -0.7500     0.4290    -1.4320 ca         1 9HU      -0.040000
     12 C12          0.3250    -0.3420    -0.9970 ca         1 9HU       0.241000
     13 C13          0.1460    -1.3070    -0.0140 ca         1 9HU       0.096100
     14 C14         -1.1330    -1.5040     0.5430 ca         1 9HU       0.130100
     15 O01         -3.6920    -1.7820     1.5840 o          1 9HU      -0.566100
     16 O02         -2.9650     1.9210    -2.2300 o          1 9HU      -0.498100
     17 O03         -1.2170    -2.4450     1.4780 oh         1 9HU      -0.565100
     18 O04          1.1910    -2.0360     0.3720 oh         1 9HU      -0.527100
     19 N            1.6030    -0.1580    -1.5680 nu         1 9HU      -0.701100
     20 S            2.4990     1.1600    -1.0850 sy         1 9HU       1.159600
     21 O05          1.6820     2.3360    -1.3030 o          1 9HU      -0.530500
     22 C15          2.7120     0.9850     0.6670 ca         1 9HU      -0.311500
     23 O06          3.7790     1.0320    -1.7570 o          1 9HU      -0.530500
     24 C16          3.5040    -0.0400     1.1750 ca         1 9HU       0.206100
     25 C17          3.6510    -0.1910     2.5400 ca         1 9HU      -0.133000
     26 C18          2.9960     0.6820     3.3980 ca         1 9HU      -0.043000
     27 C19          2.2000     1.7020     2.8950 ca         1 9HU      -0.136000
     28 C20          2.0510     1.8540     1.5260 ca         1 9HU       0.004000
     29 O07          4.0830    -0.9270     0.3080 os         1 9HU      -0.392200
     30 C21          5.3880    -0.7350    -0.0270 c          1 9HU       0.616100
     31 C            5.8090    -1.7100    -1.0750 c3         1 9HU      -0.154100
     32 O            6.0560     0.1190     0.4760 o          1 9HU      -0.436000
     33 H01         -7.9750     0.2790     0.7410 ha         1 9HU       0.123000
     34 H02         -7.6390     1.9890    -1.0140 ha         1 9HU       0.124000
     35 H03         -5.4040     2.3450    -1.9810 ha         1 9HU       0.142000
     36 H04         -6.0690    -1.0680     1.5310 ha         1 9HU       0.138000
     37 H05         -0.5970     1.1550    -2.2170 ha         1 9HU       0.170000
     38 H06         -2.1470    -2.4710     1.8000 ho         1 9HU       0.529000
     39 H07          0.9420    -2.6830     1.0460 ho         1 9HU       0.499000
     40 H08          2.1710    -0.9980    -1.6400 hn         1 9HU       0.347000
     41 H09          4.2600    -0.9950     2.9320 ha         1 9HU       0.130000
     42 H10          3.1100     0.5600     4.4660 ha         1 9HU       0.120000
     43 H11          1.6880     2.3770     3.5670 ha         1 9HU       0.123000
     44 H12          1.4290     2.6460     1.1330 ha         1 9HU       0.146000
     45 H            5.3570    -1.4260    -2.0270 hc         1 9HU       0.077033
     46 H14          6.8890    -1.7010    -1.1870 hc         1 9HU       0.077033
     47 H13          5.4710    -2.7170    -0.8380 hc         1 9HU       0.077033
@<TRIPOS>BOND
     1     1     2 ar  
     2     1     6 ar  
     3     1    33 1   
     4     2     3 ar  
     5     2    34 1   
     6     3     4 ar  
     7     3    35 1   
     8     4     5 ar  
     9     4     7 1   
    10     5     6 ar  
    11     5    10 1   
    12     6    36 1   
    13     7     8 1   
    14     7    16 2   
    15     8     9 ar  
    16     8    11 ar  
    17     9    10 1   
    18     9    14 ar  
    19    10    15 2   
    20    11    12 ar  
    21    11    37 1   
    22    12    13 ar  
    23    12    19 1   
    24    13    14 ar  
    25    13    18 1   
    26    14    17 1   
    27    17    38 1   
    28    18    39 1   
    29    19    20 1   
    30    19    40 1   
    31    20    21 2   
    32    20    22 1   
    33    20    23 2   
    34    22    24 ar  
    35    22    28 ar  
    36    24    25 ar  
    37    24    29 1   
    38    25    26 ar  
    39    25    41 1   
    40    26    27 ar  
    41    26    42 1   
    42    27    28 ar  
    43    27    43 1   
    44    28    44 1   
    45    29    30 1   
    46    30    31 1   
    47    30    32 2   
    48    31    45 1   
    49    31    46 1   
    50    31    47 1   
@<TRIPOS>SUBSTRUCTURE
     1 9HU         1 TEMP              0 ****  ****    0 ROOT
