@<TRIPOS>MOLECULE
9HU
   47    50     1     0     0
SMALL
No Charge or Current Charge


@<TRIPOS>ATOM
      1 C01         -6.6030     0.2460     1.0050 ca         1 9HU      -0.101000
      2 C02         -6.2620     1.5910     0.8080 ca         1 9HU      -0.090000
      3 C03         -4.9810     1.9280     0.3420 ca         1 9HU      -0.068000
      4 C04         -4.0250     0.9230     0.0670 ca         1 9HU      -0.122600
      5 C05         -4.3700    -0.4380     0.2660 ca         1 9HU      -0.135600
      6 C06         -5.6640    -0.7620     0.7360 ca         1 9HU      -0.061000
      7 C07         -2.6540     1.3090    -0.4330 c          1 9HU       0.591300
      8 C08         -1.6630     0.2020    -0.7150 ca         1 9HU      -0.123600
      9 C09         -2.0000    -1.1640    -0.5180 ca         1 9HU      -0.214600
     10 C10         -3.3790    -1.5410    -0.0150 c          1 9HU       0.614300
     11 C11         -0.3730     0.5420    -1.1850 ca         1 9HU      -0.040000
     12 C12          0.5940    -0.4440    -1.4560 ca         1 9HU       0.241000
     13 C13          0.2550    -1.8010    -1.2620 ca         1 9HU       0.096100
     14 C14         -1.0280    -2.1560    -0.7990 ca         1 9HU       0.130100
     15 O01         -3.6810    -2.7190     0.1590 o          1 9HU      -0.566100
     16 O02         -2.3530     2.4850    -0.6040 o          1 9HU      -0.498100
     17 O03         -1.3070    -3.4850    -0.6230 oh         1 9HU      -0.565100
     18 O04          1.1650    -2.8040    -1.5090 oh         1 9HU      -0.527100
     19 N            1.8820    -0.1230    -1.9010 nu         1 9HU      -0.701100
     20 S            2.7980     1.2560    -1.5790 sy         1 9HU       1.159600
     21 O05          2.1360     2.3340    -2.3210 o          1 9HU      -0.530500
     22 C15          2.6400     1.5290     0.1880 ca         1 9HU      -0.311500
     23 O06          4.1640     0.8270    -1.8930 o          1 9HU      -0.530500
     24 C16          3.0870     0.5590     1.1050 ca         1 9HU       0.206100
     25 C17          2.9250     0.7710     2.4870 ca         1 9HU      -0.133000
     26 C18          2.3400     1.9580     2.9570 ca         1 9HU      -0.043000
     27 C19          1.9040     2.9310     2.0440 ca         1 9HU      -0.136000
     28 C20          2.0480     2.7190     0.6620 ca         1 9HU       0.004000
     29 O07          3.6160    -0.6240     0.6510 os         1 9HU      -0.392200
     30 C21          4.8050    -1.1460     1.0810 c          1 9HU       0.616100
     31 C            5.0820    -2.4970     0.4400 c3         1 9HU      -0.154100
     32 O            5.5650    -0.5990     1.8680 o          1 9HU      -0.436000
     33 H01         -7.5950    -0.0170     1.3660 ha         1 9HU       0.123000
     34 H02         -6.9880     2.3730     1.0160 ha         1 9HU       0.124000
     35 H03         -4.7360     2.9790     0.1950 ha         1 9HU       0.142000
     36 H04         -5.9480    -1.8010     0.8960 ha         1 9HU       0.138000
     37 H05         -0.1250     1.5870    -1.3440 ha         1 9HU       0.170000
     38 H06         -2.2440    -3.5400    -0.2940 ho         1 9HU       0.529000
     39 H07          0.7010    -3.6490    -1.3040 ho         1 9HU       0.499000
     40 H08          2.5220    -0.9040    -1.9410 hn         1 9HU       0.347000
     41 H09          3.2430     0.0130     3.1970 ha         1 9HU       0.130000
     42 H10          2.2190     2.1200     4.0260 ha         1 9HU       0.120000
     43 H11          1.4480     3.8500     2.4060 ha         1 9HU       0.123000
     44 H12          1.6970     3.4840    -0.0300 ha         1 9HU       0.146000
     45 H            5.0430    -2.3840    -0.6480 hc         1 9HU       0.077033
     46 H14          6.0300    -2.9340     0.7710 hc         1 9HU       0.077033
     47 H13          4.2330    -3.1610     0.6350 hc         1 9HU       0.077033
@<TRIPOS>BOND
     1     1     2 ar  
     2     1     6 ar  
     3     1    33 1   
     4     2     3 ar  
     5     2    34 1   
     6     3     4 ar  
     7     3    35 1   
     8     4     5 ar  
     9     4     7 1   
    10     5     6 ar  
    11     5    10 1   
    12     6    36 1   
    13     7     8 1   
    14     7    16 2   
    15     8     9 ar  
    16     8    11 ar  
    17     9    10 1   
    18     9    14 ar  
    19    10    15 2   
    20    11    12 ar  
    21    11    37 1   
    22    12    13 ar  
    23    12    19 1   
    24    13    14 ar  
    25    13    18 1   
    26    14    17 1   
    27    17    38 1   
    28    18    39 1   
    29    19    20 1   
    30    19    40 1   
    31    20    21 2   
    32    20    22 1   
    33    20    23 2   
    34    22    24 ar  
    35    22    28 ar  
    36    24    25 ar  
    37    24    29 1   
    38    25    26 ar  
    39    25    41 1   
    40    26    27 ar  
    41    26    42 1   
    42    27    28 ar  
    43    27    43 1   
    44    28    44 1   
    45    29    30 1   
    46    30    31 1   
    47    30    32 2   
    48    31    45 1   
    49    31    46 1   
    50    31    47 1   
@<TRIPOS>SUBSTRUCTURE
     1 9HU         1 TEMP              0 ****  ****    0 ROOT
