@<TRIPOS>MOLECULE
9HW
   55    58     1     0     0
SMALL
bcc


@<TRIPOS>ATOM
      1 CBC         -0.3910    -3.7740    -1.7610 c3         1 9HW      -0.116100
      2 CBB          1.0960    -3.9900    -1.5230 c3         1 9HW       0.100000
      3 NAZ          1.7440    -2.8120    -0.9860 ns         1 9HW      -0.573900
      4 CAX          2.1050    -2.6600     0.2960 c          1 9HW       0.669100
      5 OBA          1.9820    -3.5280     1.1490 o          1 9HW      -0.589100
      6 CAW          2.7110    -1.3060     0.6350 c3         1 9HW      -0.153700
      7 CAY          4.1510    -1.4740     1.1090 c3         1 9HW      -0.083100
      8 CAJ          1.8560    -0.6540     1.7440 c3         1 9HW       0.104200
      9 NAI          0.4210    -0.7580     1.5480 n2         1 9HW      -0.553900
     10 CAK          2.1930     0.7750     1.9940 cc         1 9HW       0.375800
     11 NAS          2.6400     1.2940     3.0950 nd         1 9HW      -0.333000
     12 NAT          2.6870     2.6410     2.9270 nd         1 9HW      -0.355000
     13 CAU          2.2640     2.9230     1.7280 cc         1 9HW       0.403800
     14 CAV          2.1100     4.2870     1.1690 c3         1 9HW      -0.123400
     15 NAL          1.9390     1.7600     1.0870 na         1 9HW      -0.273800
     16 CAM          1.4860     1.5550    -0.2320 ca         1 9HW      -0.017200
     17 CAO          2.0800     2.2320    -1.2850 ca         1 9HW      -0.097000
     18 CAP          1.6840     2.0090    -2.5930 ca         1 9HW      -0.197000
     19 CAQ          0.6880     1.0750    -2.8650 ca         1 9HW       0.142100
     20 OBD          0.2470     0.7680    -4.0910 os         1 9HW      -0.310900
     21 CBE          0.8240     1.4260    -5.2050 c3         1 9HW       0.122700
     22 CAR          0.0960     0.3900    -1.8060 ca         1 9HW      -0.142000
     23 CAN          0.4780     0.6190    -0.4910 ca         1 9HW      -0.147900
     24 CAH         -0.1690    -0.1890     0.5770 ce         1 9HW       0.530500
     25 CAE         -1.6390    -0.3700     0.4870 ca         1 9HW      -0.144900
     26 CAD         -2.2240    -1.5420     0.9640 ca         1 9HW      -0.085500
     27 CAC         -3.5960    -1.7190     0.9210 ca         1 9HW      -0.131000
     28 CAB         -4.3930    -0.7030     0.4120 ca         1 9HW       0.041400
     29 CLA         -6.1090    -0.9150     0.3580 cl         1 9HW      -0.105400
     30 CAG         -3.8370     0.4770    -0.0540 ca         1 9HW      -0.131000
     31 CAF         -2.4600     0.6330    -0.0210 ca         1 9HW      -0.085500
     32 HBD         -0.5640    -2.9740    -2.4830 hc         1 9HW       0.041033
     33 HBE         -0.8490    -4.6810    -2.1550 hc         1 9HW       0.041033
     34 HBF         -0.9020    -3.5110    -0.8360 hc         1 9HW       0.041033
     35 HBB          1.2570    -4.8130    -0.8300 h1         1 9HW       0.057200
     36 HBC          1.5910    -4.2580    -2.4580 h1         1 9HW       0.057200
     37 HBJ          1.8670    -2.0310    -1.6100 hn         1 9HW       0.308500
     38 HAY          2.7190    -0.6780    -0.2580 hc         1 9HW       0.053700
     39 HA0          4.7670    -1.9050     0.3200 hc         1 9HW       0.050367
     40 HA1          4.5860    -0.5100     1.3760 hc         1 9HW       0.050367
     41 HAZ          4.2050    -2.1240     1.9810 hc         1 9HW       0.050367
     42 HAJ          2.0860    -1.1840     2.6710 h1         1 9HW       0.127700
     43 HAW          2.8900     4.5270     0.4460 hc         1 9HW       0.060367
     44 HAX          1.1470     4.4050     0.6720 hc         1 9HW       0.060367
     45 HAV          2.1740     5.0080     1.9790 hc         1 9HW       0.060367
     46 HAO          2.8850     2.9290    -1.1020 ha         1 9HW       0.149000
     47 HAP          2.1790     2.5610    -3.3800 ha         1 9HW       0.146000
     48 HBI          0.3220     1.0360    -6.0860 h1         1 9HW       0.047033
     49 HBG          0.6720     2.5070    -5.1610 h1         1 9HW       0.047033
     50 HBH          1.8940     1.2200    -5.2880 h1         1 9HW       0.047033
     51 HAR         -0.6760    -0.3380    -2.0200 ha         1 9HW       0.164000
     52 HAD         -1.6010    -2.3290     1.3660 ha         1 9HW       0.150000
     53 HAC         -4.0380    -2.6390     1.2790 ha         1 9HW       0.151000
     54 HAG         -4.4640     1.2690    -0.4410 ha         1 9HW       0.151000
     55 HAF         -2.0350     1.5600    -0.3850 ha         1 9HW       0.150000
@<TRIPOS>BOND
     1     1     2 1   
     2     1    32 1   
     3     1    33 1   
     4     1    34 1   
     5     2     3 1   
     6     2    35 1   
     7     2    36 1   
     8     3     4 1   
     9     3    37 1   
    10     4     5 2   
    11     4     6 1   
    12     6     7 1   
    13     6     8 1   
    14     6    38 1   
    15     7    39 1   
    16     7    40 1   
    17     7    41 1   
    18     8     9 1   
    19     8    10 1   
    20     8    42 1   
    21     9    24 2   
    22    10    11 2   
    23    10    15 1   
    24    11    12 1   
    25    12    13 2   
    26    13    14 1   
    27    13    15 1   
    28    14    43 1   
    29    14    44 1   
    30    14    45 1   
    31    15    16 1   
    32    16    17 ar  
    33    16    23 ar  
    34    17    18 ar  
    35    17    46 1   
    36    18    19 ar  
    37    18    47 1   
    38    19    20 1   
    39    19    22 ar  
    40    20    21 1   
    41    21    48 1   
    42    21    49 1   
    43    21    50 1   
    44    22    23 ar  
    45    22    51 1   
    46    23    24 1   
    47    24    25 1   
    48    25    26 ar  
    49    25    31 ar  
    50    26    27 ar  
    51    26    52 1   
    52    27    28 ar  
    53    27    53 1   
    54    28    29 1   
    55    28    30 ar  
    56    30    31 ar  
    57    30    54 1   
    58    31    55 1   
@<TRIPOS>SUBSTRUCTURE
     1 9HW         1 TEMP              0 ****  ****    0 ROOT
