@<TRIPOS>MOLECULE
9HW
   55    58     1     0     0
SMALL
No Charge or Current Charge


@<TRIPOS>ATOM
      1 CBC         -0.2300    -4.5040    -0.9690 c3         1 9HW      -0.116100
      2 CBB          1.2280    -4.3700    -1.4430 c3         1 9HW       0.100000
      3 NAZ          1.8260    -3.1130    -0.9930 ns         1 9HW      -0.506900
      4 CAX          2.3010    -2.8800     0.2800 c          1 9HW       0.602100
      5 OBA          2.3620    -3.7600     1.1280 o          1 9HW      -0.589100
      6 CAW          2.7420    -1.4310     0.5490 c3         1 9HW      -0.153700
      7 CAY          4.2450    -1.3690     0.9200 c3         1 9HW      -0.083100
      8 CAJ          1.8260    -0.7790     1.6290 c3         1 9HW       0.104200
      9 NAI          0.3970    -0.9390     1.2710 n2         1 9HW      -0.553900
     10 CAK          2.1390     0.6740     1.9310 cc         1 9HW       0.375800
     11 NAS          2.5760     1.1670     3.0820 nd         1 9HW      -0.333000
     12 NAT          2.6370     2.5450     2.9660 nd         1 9HW      -0.355000
     13 CAU          2.2320     2.8820     1.7490 cc         1 9HW       0.403800
     14 CAV          2.0680     4.2900     1.2500 c3         1 9HW      -0.123400
     15 NAL          1.9340     1.7210     1.0790 na         1 9HW      -0.273800
     16 CAM          1.4960     1.5930    -0.2410 ca         1 9HW      -0.017200
     17 CAO          2.1420     2.3140    -1.2660 ca         1 9HW      -0.079000
     18 CAP          1.7380     2.1840    -2.6040 ca         1 9HW      -0.179000
     19 CAQ          0.6850     1.3110    -2.9370 ca         1 9HW       0.142100
     20 OBD          0.2480     1.1310    -4.2330 os         1 9HW      -0.334100
     21 CBE          0.8300     1.8360    -5.3450 c3         1 9HW       0.145900
     22 CAR          0.0550     0.5740    -1.9240 ca         1 9HW      -0.124000
     23 CAN          0.4420     0.7020    -0.5700 ca         1 9HW      -0.147900
     24 CAH         -0.2510    -0.1550     0.4560 ce         1 9HW       0.530500
     25 CAE         -1.7470    -0.2650     0.3810 ca         1 9HW      -0.144900
     26 CAD         -2.4150    -1.4310     0.8280 ca         1 9HW      -0.067500
     27 CAC         -3.8170    -1.5120     0.7850 ca         1 9HW      -0.113000
     28 CAB         -4.5700    -0.4270     0.3130 ca         1 9HW       0.133000
     29 ClA         -6.3250    -0.5300     0.2630 cl         1 9HW      -0.197000
     30 CAG         -3.9240     0.7440    -0.1100 ca         1 9HW      -0.113000
     31 CAF         -2.5220     0.8290    -0.0690 ca         1 9HW      -0.067500
     32 HBD         -0.8370    -3.6730    -1.3490 hc         1 9HW       0.041033
     33 HBE         -0.6630    -5.4420    -1.3340 hc         1 9HW       0.041033
     34 HBF         -0.2860    -4.5020     0.1260 hc         1 9HW       0.041033
     35 HBB          1.8210    -5.2120    -1.0610 h1         1 9HW       0.057200
     36 HBC          1.2610    -4.4020    -2.5400 h1         1 9HW       0.057200
     37 HBJ          1.8210    -2.3230    -1.6270 hn         1 9HW       0.308500
     38 HAY          2.6260    -0.8710    -0.3850 hc         1 9HW       0.053700
     39 HA0          4.8520    -1.8520     0.1440 hc         1 9HW       0.050367
     40 HA1          4.5860    -0.3310     1.0130 hc         1 9HW       0.050367
     41 HAZ          4.4370    -1.8810     1.8710 hc         1 9HW       0.050367
     42 HAJ          2.0090    -1.3240     2.5670 h1         1 9HW       0.127700
     43 HAW          2.9750     4.6290     0.7370 hc         1 9HW       0.060367
     44 HAX          1.2250     4.3680     0.5550 hc         1 9HW       0.060367
     45 HAV          1.8770     4.9770     2.0830 hc         1 9HW       0.060367
     46 HAO          2.9780     2.9690    -1.0340 ha         1 9HW       0.131000
     47 HAP          2.2590     2.7590    -3.3650 ha         1 9HW       0.128000
     48 HBI          0.3330     1.5480    -6.2800 h1         1 9HW       0.047033
     49 HBG          0.7180     2.9210    -5.2210 h1         1 9HW       0.047033
     50 HBH          1.8970     1.6000    -5.4410 h1         1 9HW       0.047033
     51 HAR         -0.7400    -0.1140    -2.2020 ha         1 9HW       0.146000
     52 HAD         -1.8500    -2.2840     1.2000 ha         1 9HW       0.132000
     53 HAC         -4.3210    -2.4150     1.1210 ha         1 9HW       0.133000
     54 HAG         -4.5110     1.5880    -0.4640 ha         1 9HW       0.133000
     55 HAF         -2.0410     1.7530    -0.3860 ha         1 9HW       0.132000
@<TRIPOS>BOND
     1     1     2 1   
     2     1    32 1   
     3     1    33 1   
     4     1    34 1   
     5     2     3 1   
     6     2    35 1   
     7     2    36 1   
     8     3     4 1   
     9     3    37 1   
    10     4     5 2   
    11     4     6 1   
    12     6     7 1   
    13     6     8 1   
    14     6    38 1   
    15     7    39 1   
    16     7    40 1   
    17     7    41 1   
    18     8     9 1   
    19     8    10 1   
    20     8    42 1   
    21     9    24 2   
    22    10    11 2   
    23    10    15 1   
    24    11    12 1   
    25    12    13 2   
    26    13    14 1   
    27    13    15 1   
    28    14    43 1   
    29    14    44 1   
    30    14    45 1   
    31    15    16 1   
    32    16    17 ar  
    33    16    23 ar  
    34    17    18 ar  
    35    17    46 1   
    36    18    19 ar  
    37    18    47 1   
    38    19    20 1   
    39    19    22 ar  
    40    20    21 1   
    41    21    48 1   
    42    21    49 1   
    43    21    50 1   
    44    22    23 ar  
    45    22    51 1   
    46    23    24 1   
    47    24    25 1   
    48    25    26 ar  
    49    25    31 ar  
    50    26    27 ar  
    51    26    52 1   
    52    27    28 ar  
    53    27    53 1   
    54    28    29 1   
    55    28    30 ar  
    56    30    31 ar  
    57    30    54 1   
    58    31    55 1   
@<TRIPOS>SUBSTRUCTURE
     1 9HW         1 TEMP              0 ****  ****    0 ROOT
