@<TRIPOS>MOLECULE
9HX
   15    16     1     0     0
SMALL
No Charge or Current Charge


@<TRIPOS>ATOM
      1 C9           0.9210     0.0030    -2.0520 cc         1 9HX      -0.166000
      2 C8          -0.3510     0.0100    -2.5680 cd         1 9HX      -0.153000
      3 N7          -1.2230     0.0220    -1.4630 na         1 9HX      -0.072000
      4 C5          -0.4650     0.0220    -0.2800 cd         1 9HX      -0.292600
      5 C6          -0.8740     0.0310     1.1250 c          1 9HX       0.599600
      6 O6          -2.0280     0.0420     1.5240 o          1 9HX      -0.552000
      7 N1           0.2050     0.0270     1.9530 ns         1 9HX      -0.429400
      8 C2           1.5130     0.0150     1.5240 cd         1 9HX       0.473800
      9 N3           1.8850     0.0060     0.2390 nc         1 9HX      -0.575100
     10 C4           0.8400     0.0100    -0.6530 cc         1 9HX       0.125400
     11 H9           1.8480    -0.0070    -2.6170 ha         1 9HX       0.150000
     12 H8          -0.6990     0.0080    -3.5960 h4         1 9HX       0.151000
     13 HN7         -2.2400     0.0300    -1.5130 hn         1 9HX       0.365000
     14 HN1          0.0030     0.0330     2.9410 hn         1 9HX       0.328500
     15 H2           2.2290     0.0130     2.3370 h5         1 9HX       0.046800
@<TRIPOS>BOND
     1     1     2 2   
     2     1    10 1   
     3     1    11 1   
     4     2     3 1   
     5     2    12 1   
     6     3     4 1   
     7     3    13 1   
     8     4     5 1   
     9     4    10 2   
    10     5     6 2   
    11     5     7 1   
    12     7     8 1   
    13     7    14 1   
    14     8     9 2   
    15     8    15 1   
    16     9    10 1   
@<TRIPOS>SUBSTRUCTURE
     1 9HX         1 TEMP              0 ****  ****    0 ROOT
