@<TRIPOS>MOLECULE
9HX
   15    16     1     0     0
SMALL
bcc


@<TRIPOS>ATOM
      1 C9           0.9480     0.0030    -2.0500 cc         1 9HX      -0.184000
      2 C8          -0.3530     0.0110    -2.4960 cd         1 9HX      -0.120300
      3 N7          -1.1960     0.0220    -1.4360 na         1 9HX      -0.123100
      4 C5          -0.4650     0.0210    -0.2910 cd         1 9HX      -0.241900
      5 C6          -0.9100     0.0310     1.0650 c          1 9HX       0.742100
      6 O6          -2.0530     0.0420     1.4850 o          1 9HX      -0.627500
      7 N1           0.1960     0.0260     1.9120 ns         1 9HX      -0.496400
      8 C2           1.4980     0.0140     1.5080 cd         1 9HX       0.473800
      9 N3           1.8910     0.0060     0.2870 nc         1 9HX      -0.575100
     10 C4           0.8820     0.0090    -0.6370 cc         1 9HX       0.125400
     11 H9           1.8320    -0.0070    -2.6660 ha         1 9HX       0.168000
     12 H8          -0.7360     0.0090    -3.5030 h4         1 9HX       0.169000
     13 HN7         -2.2010     0.0290    -1.4910 hn         1 9HX       0.314700
     14 HN1          0.0040     0.0330     2.9040 hn         1 9HX       0.328500
     15 H2           2.2260     0.0130     2.3100 h5         1 9HX       0.046800
@<TRIPOS>BOND
     1     1     2 2   
     2     1    10 1   
     3     1    11 1   
     4     2     3 1   
     5     2    12 1   
     6     3     4 1   
     7     3    13 1   
     8     4     5 1   
     9     4    10 2   
    10     5     6 2   
    11     5     7 1   
    12     7     8 1   
    13     7    14 1   
    14     8     9 2   
    15     8    15 1   
    16     9    10 1   
@<TRIPOS>SUBSTRUCTURE
     1 9HX         1 TEMP              0 ****  ****    0 ROOT
