@<TRIPOS>MOLECULE
9HY
   60    63     1     0     0
SMALL
No Charge or Current Charge


@<TRIPOS>ATOM
      1 C26          1.1360    -2.1600     2.4350 c3         1 9HY      -0.176100
      2 C25          2.5810    -2.5580     2.1270 c          1 9HY       0.608100
      3 C27          4.6650    -2.2380     0.8060 c3         1 9HY       0.096300
      4 N4           3.8610     5.6980     0.1360 n1         1 9HY      -0.441000
      5 C22          3.7690     0.9170     1.0430 ca         1 9HY      -0.086000
      6 C21          4.0340     2.2930     1.0460 ca         1 9HY      -0.088000
      7 N3           3.2350    -1.9370     1.0340 n          1 9HY      -0.256400
      8 C20          3.3700     3.1390     0.1460 ca         1 9HY      -0.002000
      9 C1          -2.3140    -3.6290    -0.6210 ca         1 9HY      -0.184000
     10 C2          -1.5900    -2.4450    -0.8950 ca         1 9HY       0.119100
     11 C7          -2.3410    -1.3860     1.2140 c3         1 9HY       0.136600
     12 C6          -2.2860    -4.7040    -1.5280 ca         1 9HY      -0.069000
     13 C5          -1.5420    -4.6070    -2.7140 ca         1 9HY      -0.131000
     14 C4          -0.8190    -3.4360    -2.9960 ca         1 9HY      -0.076000
     15 C3          -0.8310    -2.3620    -2.0890 ca         1 9HY       0.058100
     16 C8          -2.1170    -0.0460     1.9440 c3         1 9HY       0.106000
     17 C9          -4.0130     1.5480     1.6220 c          1 9HY       0.615000
     18 C10         -3.8870     3.3800     0.0120 c          1 9HY       0.590200
     19 C11         -2.5530     2.9000    -0.3350 cc         1 9HY      -0.382200
     20 C12         -1.9950     1.8000     0.2730 cd         1 9HY       0.015600
     21 C13          0.8660    -0.7030    -1.5810 ca         1 9HY       0.150100
     22 O1          -0.1040    -1.2340    -2.4080 os         1 9HY      -0.235200
     23 N1          -2.7170     1.1230     1.2520 n          1 9HY      -0.309000
     24 C14          1.1630     0.6780    -1.6430 ca         1 9HY      -0.102300
     25 N2          -4.4950     2.6410     0.9730 ns         1 9HY      -0.467500
     26 C15          2.1390     1.2150    -0.7590 ca         1 9HY      -0.014000
     27 C19          2.4280     2.6020    -0.7500 ca         1 9HY      -0.067000
     28 O5           3.1570    -3.3730     2.8380 o          1 9HY      -0.586100
     29 C16          2.8340     0.3600     0.1390 ca         1 9HY      -0.055000
     30 C17          2.5890    -1.0350     0.1190 ca         1 9HY      -0.018000
     31 C18          1.5750    -1.5420    -0.7060 ca         1 9HY      -0.155000
     32 O3          -4.6860     0.9840     2.4690 o          1 9HY      -0.563000
     33 H1           1.0320    -1.0710     2.3710 hc         1 9HY       0.061033
     34 H2           0.4940    -2.5180     1.6240 hc         1 9HY       0.061033
     35 H3           0.7900    -2.5520     3.3970 hc         1 9HY       0.061033
     36 H4           4.7850    -3.3030     0.5690 h1         1 9HY       0.047367
     37 H5           5.0480    -1.6440    -0.0340 h1         1 9HY       0.047367
     38 H6           5.2470    -2.0000     1.7050 h1         1 9HY       0.047367
     39 H7          -0.0970     2.3950    -2.1340 hc         1 9HY       0.051367
     40 H8           1.1250     2.0210    -3.3600 hc         1 9HY       0.051367
     41 H9          -0.3330     1.0460    -3.2320 hc         1 9HY       0.051367
     42 H10          4.2990     0.2940     1.7580 ha         1 9HY       0.131000
     43 H11          4.7580     2.7000     1.7500 ha         1 9HY       0.131000
     44 H12         -2.9060    -3.7350     0.2830 ha         1 9HY       0.124000
     45 H13         -1.9830    -2.2020     1.8550 h1         1 9HY       0.057200
     46 H14         -3.4150    -1.5280     1.0370 h1         1 9HY       0.057200
     47 H15         -2.8460    -5.6120    -1.3120 ha         1 9HY       0.121000
     48 H16         -1.5260    -5.4380    -3.4160 ha         1 9HY       0.125000
     49 H17         -0.2410    -3.3610    -3.9140 ha         1 9HY       0.134000
     50 H18         -2.5260    -0.1260     2.9600 h1         1 9HY       0.079200
     51 H19         -1.0380     0.1210     2.0550 h1         1 9HY       0.079200
     52 H20         -2.0350     3.4670    -1.1010 ha         1 9HY       0.223000
     53 H21         -1.0110     1.3870     0.0600 h4         1 9HY       0.214000
     54 H22         -5.4190     2.9390     1.2410 hn         1 9HY       0.343500
     55 H23          1.9250     3.2830    -1.4300 ha         1 9HY       0.131000
     56 H24          1.3620    -2.6080    -0.6880 ha         1 9HY       0.138000
     57 C24          0.4230     1.5770    -2.6440 c3         1 9HY      -0.044800
     58 C23          3.6450     4.5510     0.1450 cg         1 9HY       0.317000
     59 O2          -1.6120    -1.3640    -0.0290 os         1 9HY      -0.348100
     60 O4          -4.4210     4.3480    -0.5000 o          1 9HY      -0.522000
@<TRIPOS>BOND
     1     1     2 1   
     2     1    33 1   
     3     1    34 1   
     4     1    35 1   
     5     2     7 1   
     6     2    28 2   
     7     3     7 1   
     8     3    36 1   
     9     3    37 1   
    10     3    38 1   
    11     4    58 3   
    12     5     6 ar  
    13     5    29 ar  
    14     5    42 1   
    15     6     8 ar  
    16     6    43 1   
    17     7    30 1   
    18     8    27 ar  
    19     8    58 1   
    20     9    10 ar  
    21     9    12 ar  
    22     9    44 1   
    23    10    15 ar  
    24    10    59 1   
    25    11    16 1   
    26    11    45 1   
    27    11    46 1   
    28    11    59 1   
    29    12    13 ar  
    30    12    47 1   
    31    13    14 ar  
    32    13    48 1   
    33    14    15 ar  
    34    14    49 1   
    35    15    22 1   
    36    16    23 1   
    37    16    50 1   
    38    16    51 1   
    39    17    23 1   
    40    17    25 1   
    41    17    32 2   
    42    18    19 1   
    43    18    25 1   
    44    18    60 2   
    45    19    20 2   
    46    19    52 1   
    47    20    23 1   
    48    20    53 1   
    49    21    22 1   
    50    21    24 ar  
    51    21    31 ar  
    52    24    26 ar  
    53    24    57 1   
    54    25    54 1   
    55    26    27 ar  
    56    26    29 ar  
    57    27    55 1   
    58    29    30 ar  
    59    30    31 ar  
    60    31    56 1   
    61    39    57 1   
    62    40    57 1   
    63    41    57 1   
@<TRIPOS>SUBSTRUCTURE
     1 9HY         1 TEMP              0 ****  ****    0 ROOT
