@<TRIPOS>MOLECULE
9HY
   60    63     1     0     0
SMALL
bcc


@<TRIPOS>ATOM
      1 C26          1.3230    -1.8200     2.6500 c3         1 9HY      -0.176100
      2 C25          2.6360    -2.4060     2.1940 c          1 9HY       0.675100
      3 C27          4.4240    -2.4630     0.5500 c3         1 9HY       0.096300
      4 N4           4.3430     5.4960    -0.0330 n1         1 9HY      -0.351800
      5 C22          3.8920     0.8400     1.0120 ca         1 9HY      -0.104000
      6 C21          4.2720     2.1490     0.9680 ca         1 9HY      -0.106000
      7 N3           3.1580    -1.9280     1.0340 n          1 9HY      -0.416000
      8 C20          3.6070     3.0260     0.0830 ca         1 9HY      -0.002000
      9 C1          -2.2900    -3.5500    -0.6160 ca         1 9HY      -0.202000
     10 C2          -1.6350    -2.3430    -0.8310 ca         1 9HY       0.119100
     11 C7          -2.3460    -1.3960     1.2330 c3         1 9HY       0.113400
     12 C6          -2.1810    -4.5750    -1.5500 ca         1 9HY      -0.087000
     13 C5          -1.4190    -4.4130    -2.6940 ca         1 9HY      -0.149000
     14 C4          -0.7500    -3.2130    -2.9080 ca         1 9HY      -0.094000
     15 C3          -0.8590    -2.1900    -1.9880 ca         1 9HY       0.058100
     16 C8          -2.1900    -0.0720     1.9470 c3         1 9HY       0.106000
     17 C9          -4.1720     1.2360     1.3980 c          1 9HY       0.824500
     18 C10         -4.0310     3.0820    -0.2480 c          1 9HY       0.732700
     19 C11         -2.6280     2.7740    -0.3810 cc         1 9HY      -0.332200
     20 C12         -2.0980     1.7770     0.3470 cd         1 9HY       0.065600
     21 C13          0.7520    -0.5520    -1.4270 ca         1 9HY       0.150100
     22 O1          -0.2430    -0.9920    -2.2420 os         1 9HY      -0.235200
     23 N1          -2.8200     1.0260     1.2270 n          1 9HY      -0.376000
     24 C14          1.0830     0.7820    -1.4920 ca         1 9HY      -0.102300
     25 N2          -4.6910     2.2650     0.6580 ns         1 9HY      -0.601500
     26 C15          2.1630     1.2380    -0.6830 ca         1 9HY      -0.014000
     27 C19          2.5800     2.5870    -0.7180 ca         1 9HY      -0.085000
     28 O5           3.2140    -3.2720     2.8290 o          1 9HY      -0.586100
     29 C16          2.8510     0.3530     0.1900 ca         1 9HY      -0.055000
     30 C17          2.4630    -1.0100     0.2100 ca         1 9HY       0.074600
     31 C18          1.4510    -1.4480    -0.5930 ca         1 9HY      -0.173000
     32 O3          -4.8510     0.5640     2.1460 o          1 9HY      -0.638500
     33 H1           1.2660    -0.7430     2.4990 hc         1 9HY       0.061033
     34 H2           0.4960    -2.2720     2.1010 hc         1 9HY       0.061033
     35 H3           1.1820    -2.0360     3.7070 hc         1 9HY       0.061033
     36 H4           4.3250    -3.5030     0.2400 h1         1 9HY       0.047367
     37 H5           4.7450    -1.8790    -0.3080 h1         1 9HY       0.047367
     38 H6           5.1950    -2.3980     1.3170 h1         1 9HY       0.047367
     39 H7           0.1260     2.6680    -1.9090 hc         1 9HY       0.051367
     40 H8           0.9500     1.9640    -3.2860 hc         1 9HY       0.051367
     41 H9          -0.5900     1.3080    -2.7480 hc         1 9HY       0.051367
     42 H10          4.3960     0.1640     1.6900 ha         1 9HY       0.149000
     43 H11          5.0710     2.5160     1.5970 ha         1 9HY       0.149000
     44 H12         -2.8940    -3.7040     0.2680 ha         1 9HY       0.142000
     45 H13         -1.9090    -2.1860     1.8530 h1         1 9HY       0.057200
     46 H14         -3.4030    -1.6320     1.0820 h1         1 9HY       0.057200
     47 H15         -2.7020    -5.5060    -1.3690 ha         1 9HY       0.139000
     48 H16         -1.3350    -5.2130    -3.4170 ha         1 9HY       0.143000
     49 H17         -0.1430    -3.0660    -3.7920 ha         1 9HY       0.152000
     50 H18         -2.6200    -0.1490     2.9430 h1         1 9HY       0.079200
     51 H19         -1.1350     0.1730     2.0720 h1         1 9HY       0.079200
     52 H20         -2.0180     3.3510    -1.0570 ha         1 9HY       0.173000
     53 H21         -1.0490     1.5240     0.2780 h4         1 9HY       0.164000
     54 H22         -5.6810     2.4330     0.7880 hn         1 9HY       0.343500
     55 H23          2.0970     3.2890    -1.3820 ha         1 9HY       0.149000
     56 H24          1.1960    -2.5000    -0.5870 ha         1 9HY       0.156000
     57 C24          0.3530     1.7240    -2.4040 c3         1 9HY      -0.044800
     58 C23          4.0080     4.3950     0.0200 cg         1 9HY       0.227800
     59 O2          -1.6680    -1.2840    -0.0030 os         1 9HY      -0.324900
     60 O4          -4.6300     3.9590    -0.8420 o          1 9HY      -0.597500
@<TRIPOS>BOND
     1     1     2 1   
     2     1    33 1   
     3     1    34 1   
     4     1    35 1   
     5     2     7 1   
     6     2    28 2   
     7     3     7 1   
     8     3    36 1   
     9     3    37 1   
    10     3    38 1   
    11     4    58 3   
    12     5     6 ar  
    13     5    29 ar  
    14     5    42 1   
    15     6     8 ar  
    16     6    43 1   
    17     7    30 1   
    18     8    27 ar  
    19     8    58 1   
    20     9    10 ar  
    21     9    12 ar  
    22     9    44 1   
    23    10    15 ar  
    24    10    59 1   
    25    11    16 1   
    26    11    45 1   
    27    11    46 1   
    28    11    59 1   
    29    12    13 ar  
    30    12    47 1   
    31    13    14 ar  
    32    13    48 1   
    33    14    15 ar  
    34    14    49 1   
    35    15    22 1   
    36    16    23 1   
    37    16    50 1   
    38    16    51 1   
    39    17    23 1   
    40    17    25 1   
    41    17    32 2   
    42    18    19 1   
    43    18    25 1   
    44    18    60 2   
    45    19    20 2   
    46    19    52 1   
    47    20    23 1   
    48    20    53 1   
    49    21    22 1   
    50    21    24 ar  
    51    21    31 ar  
    52    24    26 ar  
    53    24    57 1   
    54    25    54 1   
    55    26    27 ar  
    56    26    29 ar  
    57    27    55 1   
    58    29    30 ar  
    59    30    31 ar  
    60    31    56 1   
    61    39    57 1   
    62    40    57 1   
    63    41    57 1   
@<TRIPOS>SUBSTRUCTURE
     1 9HY         1 TEMP              0 ****  ****    0 ROOT
