@<TRIPOS>MOLECULE
9HZ
   55    58     1     0     0
SMALL
No Charge or Current Charge


@<TRIPOS>ATOM
      1 CBE         -0.5280    -3.7210     2.9840 c3         1 9HZ       0.150900
      2 OBC         -1.0620    -2.6490     2.1870 os         1 9HZ      -0.441100
      3 CAZ         -1.5900    -2.9580     0.9590 c          1 9HZ       0.594100
      4 OBD         -1.6550    -4.0930     0.5030 o          1 9HZ      -0.475000
      5 CAY         -2.1190    -1.7140     0.2280 c3         1 9HZ      -0.126700
      6 CBA         -3.6540    -1.8080     0.0120 c3         1 9HZ      -0.037200
      7 CBB         -4.4150    -1.9500     1.3150 c2         1 9HZ      -0.222200
      8 CBF         -5.0720    -0.9570     1.9340 c2         1 9HZ      -0.312000
      9 CAJ         -1.3260    -1.4890    -1.0940 c3         1 9HZ       0.100200
     10 NAI          0.1270    -1.3800    -0.8160 n2         1 9HZ      -0.571900
     11 CAK         -1.8040    -0.3120    -1.9260 cc         1 9HZ       0.372800
     12 NAU         -2.3370    -0.3660    -3.1390 nd         1 9HZ      -0.334000
     13 NAV         -2.5550     0.9300    -3.5730 nd         1 9HZ      -0.357000
     14 CAW         -2.1510     1.7630    -2.6240 cc         1 9HZ       0.404800
     15 CAX         -2.1330     3.2620    -2.7370 c3         1 9HZ      -0.124400
     16 NAL         -1.7020     1.0030    -1.5720 na         1 9HZ      -0.268800
     17 CAM         -1.1630     1.4590    -0.3680 ca         1 9HZ      -0.021200
     18 CAO         -1.8180     2.4790     0.3530 ca         1 9HZ      -0.080000
     19 CAP         -1.3010     2.9420     1.5740 ca         1 9HZ      -0.176000
     20 CAQ         -0.1230     2.3760     2.0970 ca         1 9HZ       0.145100
     21 OAS          0.4310     2.7840     3.2940 os         1 9HZ      -0.333100
     22 CAT         -0.1520     3.8280     4.0940 c3         1 9HZ       0.145900
     23 CAR          0.5180     1.3460     1.3940 ca         1 9HZ      -0.105000
     24 CAN          0.0140     0.8740     0.1610 ca         1 9HZ      -0.144900
     25 CAH          0.7280    -0.2620    -0.5190 ce         1 9HZ       0.546500
     26 CAE          2.2190    -0.1590    -0.6840 ca         1 9HZ      -0.143900
     27 CAD          3.0190    -1.3210    -0.8030 ca         1 9HZ      -0.067000
     28 CAC          4.4090    -1.2150    -0.9920 ca         1 9HZ      -0.112500
     29 CAB          5.0130     0.0470    -1.0830 ca         1 9HZ       0.133000
     30 ClA          6.7500     0.1760    -1.3230 cl         1 9HZ      -0.197000
     31 CAG          4.2300     1.2070    -0.9920 ca         1 9HZ      -0.112500
     32 CAF          2.8400     1.1060    -0.8020 ca         1 9HZ      -0.067000
     33 HBF         -0.1400    -3.3340     3.9340 h1         1 9HZ       0.049367
     34 HBE         -1.3040    -4.4640     3.2100 h1         1 9HZ       0.049367
     35 HBG          0.2940    -4.2250     2.4600 h1         1 9HZ       0.049367
     36 HA0         -1.9440    -0.8570     0.8860 hc         1 9HZ       0.083700
     37 HBB         -4.0020    -0.9080    -0.5100 hc         1 9HZ       0.067700
     38 HBA         -3.8850    -2.6520    -0.6510 hc         1 9HZ       0.067700
     39 HBC         -4.4130    -2.9580     1.7390 ha         1 9HZ       0.175000
     40 HBH         -5.6090    -1.1230     2.8690 ha         1 9HZ       0.162000
     41 H2          -5.0960     0.0580     1.5310 ha         1 9HZ       0.162000
     42 HAJ         -1.4940    -2.3790    -1.7180 h1         1 9HZ       0.121700
     43 HAZ         -3.0410     3.6950    -2.3020 hc         1 9HZ       0.061033
     44 HAX         -1.2640     3.6870    -2.2220 hc         1 9HZ       0.061033
     45 HAY         -2.0830     3.5720    -3.7870 hc         1 9HZ       0.061033
     46 HAO         -2.7440     2.9090    -0.0220 ha         1 9HZ       0.129000
     47 HAP         -1.8320     3.7310     2.0990 ha         1 9HZ       0.127000
     48 HAT          0.4470     3.9930     4.9980 h1         1 9HZ       0.046033
     49 HAU         -0.1920     4.7720     3.5350 h1         1 9HZ       0.046033
     50 HAV         -1.1700     3.5590     4.4050 h1         1 9HZ       0.046033
     51 HAR          1.4150     0.9030     1.8210 ha         1 9HZ       0.146000
     52 HAD          2.5720    -2.3110    -0.7380 ha         1 9HZ       0.129500
     53 HAC          5.0160    -2.1130    -1.0720 ha         1 9HZ       0.133000
     54 HAG          4.6980     2.1840    -1.0750 ha         1 9HZ       0.133000
     55 HAF          2.2500     2.0200    -0.7530 ha         1 9HZ       0.129500
@<TRIPOS>BOND
     1     1     2 1   
     2     1    33 1   
     3     1    34 1   
     4     1    35 1   
     5     2     3 1   
     6     3     4 2   
     7     3     5 1   
     8     5     6 1   
     9     5     9 1   
    10     5    36 1   
    11     6     7 1   
    12     6    37 1   
    13     6    38 1   
    14     7     8 2   
    15     7    39 1   
    16     8    40 1   
    17     8    41 1   
    18     9    10 1   
    19     9    11 1   
    20     9    42 1   
    21    10    25 2   
    22    11    12 2   
    23    11    16 1   
    24    12    13 1   
    25    13    14 2   
    26    14    15 1   
    27    14    16 1   
    28    15    43 1   
    29    15    44 1   
    30    15    45 1   
    31    16    17 1   
    32    17    18 ar  
    33    17    24 ar  
    34    18    19 ar  
    35    18    46 1   
    36    19    20 ar  
    37    19    47 1   
    38    20    21 1   
    39    20    23 ar  
    40    21    22 1   
    41    22    48 1   
    42    22    49 1   
    43    22    50 1   
    44    23    24 ar  
    45    23    51 1   
    46    24    25 1   
    47    25    26 1   
    48    26    27 ar  
    49    26    32 ar  
    50    27    28 ar  
    51    27    52 1   
    52    28    29 ar  
    53    28    53 1   
    54    29    30 1   
    55    29    31 ar  
    56    31    32 ar  
    57    31    54 1   
    58    32    55 1   
@<TRIPOS>SUBSTRUCTURE
     1 9HZ         1 TEMP              0 ****  ****    0 ROOT
