@<TRIPOS>MOLECULE
9HZ
   55    58     1     0     0
SMALL
abcg2


@<TRIPOS>ATOM
      1 CBE          0.2350    -3.0360     2.5600 c3         1 9HZ       0.150900
      2 OBC         -0.6100    -2.1210     1.8600 os         1 9HZ      -0.441100
      3 CAZ         -1.3630    -2.6040     0.8870 c          1 9HZ       0.594100
      4 OBD         -1.4050    -3.7690     0.5810 o          1 9HZ      -0.475000
      5 CAY         -2.1440    -1.5170     0.1770 c3         1 9HZ      -0.126700
      6 CBA         -3.6150    -1.9110     0.0000 c3         1 9HZ      -0.037200
      7 CBB         -4.3030    -2.1380     1.3100 c2         1 9HZ      -0.222200
      8 CBF         -5.2410    -1.3410     1.8090 c2         1 9HZ      -0.312000
      9 CAJ         -1.4730    -1.3120    -1.2020 c3         1 9HZ       0.100200
     10 NAI         -0.0250    -1.2260    -1.1390 n2         1 9HZ      -0.571900
     11 CAK         -1.9990    -0.1540    -1.9740 cc         1 9HZ       0.372800
     12 NAU         -2.5900    -0.1930    -3.1280 nd         1 9HZ      -0.334000
     13 NAV         -2.7860     1.0870    -3.5330 nd         1 9HZ      -0.357000
     14 CAW         -2.3060     1.8870    -2.6240 cc         1 9HZ       0.404800
     15 CAX         -2.2860     3.3660    -2.7050 c3         1 9HZ      -0.124400
     16 NAL         -1.7940     1.1390    -1.6010 na         1 9HZ      -0.268800
     17 CAM         -1.2100     1.5540    -0.3880 ca         1 9HZ      -0.021200
     18 CAO         -1.7890     2.5770     0.3440 ca         1 9HZ      -0.080000
     19 CAP         -1.2550     2.9840     1.5550 ca         1 9HZ      -0.176000
     20 CAQ         -0.1270     2.3420     2.0610 ca         1 9HZ       0.145100
     21 OAS          0.4620     2.6410     3.2270 os         1 9HZ      -0.333100
     22 CAT         -0.0830     3.6820     4.0170 c3         1 9HZ       0.145900
     23 CAR          0.4470     1.3050     1.3300 ca         1 9HZ      -0.105000
     24 CAN         -0.0750     0.9010     0.1090 ca         1 9HZ      -0.144900
     25 CAH          0.5670    -0.2530    -0.5740 ce         1 9HZ       0.546500
     26 CAE          2.0500    -0.3010    -0.5600 ca         1 9HZ      -0.143900
     27 CAD          2.7030    -1.5280    -0.4710 ca         1 9HZ      -0.067000
     28 CAC          4.0850    -1.6000    -0.4930 ca         1 9HZ      -0.112500
     29 CAB          4.8190    -0.4290    -0.6230 ca         1 9HZ       0.133000
     30 CLA          6.5470    -0.5100    -0.6560 cl         1 9HZ      -0.197000
     31 CAG          4.1930     0.8030    -0.7230 ca         1 9HZ      -0.112500
     32 CAF          2.8090     0.8610    -0.6830 ca         1 9HZ      -0.067000
     33 HBF          0.7700    -2.4440     3.2950 h1         1 9HZ       0.049367
     34 HBE         -0.3470    -3.8060     3.0670 h1         1 9HZ       0.049367
     35 HBG          0.9480    -3.5100     1.8860 h1         1 9HZ       0.049367
     36 HA0         -2.0990    -0.6070     0.7760 hc         1 9HZ       0.083700
     37 HBB         -4.1260    -1.1150    -0.5460 hc         1 9HZ       0.067700
     38 HBA         -3.6750    -2.8100    -0.6190 hc         1 9HZ       0.067700
     39 HBC         -3.9970    -3.0120     1.8780 ha         1 9HZ       0.175000
     40 HBH         -5.7040    -1.5400     2.7670 ha         1 9HZ       0.162000
     41 H2          -5.5820    -0.4620     1.2740 ha         1 9HZ       0.162000
     42 HAJ         -1.7070    -2.1960    -1.7990 h1         1 9HZ       0.121700
     43 HAZ         -3.0490     3.8220    -2.0750 hc         1 9HZ       0.061033
     44 HAX         -1.3190     3.7720    -2.4080 hc         1 9HZ       0.061033
     45 HAY         -2.4860     3.6640    -3.7320 hc         1 9HZ       0.061033
     46 HAO         -2.6900     3.0590    -0.0110 ha         1 9HZ       0.129000
     47 HAP         -1.7450     3.7830     2.0930 ha         1 9HZ       0.127000
     48 HAT          0.5480     3.7600     4.8980 h1         1 9HZ       0.046033
     49 HAU         -0.0730     4.6400     3.4910 h1         1 9HZ       0.046033
     50 HAV         -1.1060     3.4600     4.3330 h1         1 9HZ       0.046033
     51 HAR          1.3130     0.7980     1.7360 ha         1 9HZ       0.146000
     52 HAD          2.1240    -2.4370    -0.3710 ha         1 9HZ       0.129500
     53 HAC          4.5840    -2.5560    -0.4070 ha         1 9HZ       0.133000
     54 HAG          4.7730     1.7090    -0.8340 ha         1 9HZ       0.133000
     55 HAF          2.3240     1.8260    -0.7640 ha         1 9HZ       0.129500
@<TRIPOS>BOND
     1     1     2 1   
     2     1    33 1   
     3     1    34 1   
     4     1    35 1   
     5     2     3 1   
     6     3     4 2   
     7     3     5 1   
     8     5     6 1   
     9     5     9 1   
    10     5    36 1   
    11     6     7 1   
    12     6    37 1   
    13     6    38 1   
    14     7     8 2   
    15     7    39 1   
    16     8    40 1   
    17     8    41 1   
    18     9    10 1   
    19     9    11 1   
    20     9    42 1   
    21    10    25 2   
    22    11    12 2   
    23    11    16 1   
    24    12    13 1   
    25    13    14 2   
    26    14    15 1   
    27    14    16 1   
    28    15    43 1   
    29    15    44 1   
    30    15    45 1   
    31    16    17 1   
    32    17    18 ar  
    33    17    24 ar  
    34    18    19 ar  
    35    18    46 1   
    36    19    20 ar  
    37    19    47 1   
    38    20    21 1   
    39    20    23 ar  
    40    21    22 1   
    41    22    48 1   
    42    22    49 1   
    43    22    50 1   
    44    23    24 ar  
    45    23    51 1   
    46    24    25 1   
    47    25    26 1   
    48    26    27 ar  
    49    26    32 ar  
    50    27    28 ar  
    51    27    52 1   
    52    28    29 ar  
    53    28    53 1   
    54    29    30 1   
    55    29    31 ar  
    56    31    32 ar  
    57    31    54 1   
    58    32    55 1   
@<TRIPOS>SUBSTRUCTURE
     1 9HZ         1 TEMP              0 ****  ****    0 ROOT
