@<TRIPOS>MOLECULE
9I0
   47    49     1     0     0
SMALL
No Charge or Current Charge


@<TRIPOS>ATOM
      1 N          145.4950   129.3320   133.5090 n          1 9I0      -0.436800
      2 C          146.0140   127.0710   133.0340 c5         1 9I0      -0.076700
      3 O          145.6790   131.2680   132.3090 o          1 9I0      -0.571100
      4 C1         145.0960   127.1260   134.2920 c5         1 9I0      -0.076700
      5 O1         142.8560   133.3170   134.0770 o          1 9I0      -0.729000
      6 C2         145.7630   128.4500   132.3580 c5         1 9I0       0.113000
      7 O2         144.1870   134.2350   132.6580 o          1 9I0      -0.729000
      8 C3         145.2320   128.6000   134.7660 c5         1 9I0       0.113000
      9 C4         145.7350   125.8520   132.1010 c6         1 9I0      -0.067900
     10 C5         143.6570   126.6450   133.9740 c6         1 9I0      -0.067900
     11 C6         145.0180   124.7090   132.8610 c6         1 9I0      -0.072400
     12 C7         143.6520   125.1730   133.4570 c6         1 9I0      -0.072400
     13 C8         145.4740   130.7380   133.3940 c          1 9I0       0.609100
     14 C9         145.2100   131.5700   134.6720 c3         1 9I0      -0.120400
     15 C10        145.1970   133.1230   134.5100 c3         1 9I0      -0.180700
     16 C11        145.2370   133.8290   135.8910 c3         1 9I0      -0.016100
     17 C12        143.9790   133.6010   133.6820 c          1 9I0       0.731000
     18 C13        145.3860   135.3420   135.7830 ca         1 9I0      -0.031300
     19 C14        146.6390   135.9110   135.4830 ca         1 9I0      -0.093500
     20 C15        144.2760   136.1860   135.9860 ca         1 9I0      -0.093500
     21 C16        146.7810   137.3070   135.3870 ca         1 9I0      -0.119000
     22 C17        144.4170   137.5810   135.8890 ca         1 9I0      -0.119000
     23 C18        145.6700   138.1420   135.5900 ca         1 9I0      -0.132000
     24 H1         147.0610   126.9870   133.3490 hc         1 9I0       0.046200
     25 H2         145.4550   126.4500   135.0780 hc         1 9I0       0.046200
     26 H4         144.8890   128.4260   131.6930 h1         1 9I0       0.044200
     27 H5         146.6330   128.7790   131.7740 h1         1 9I0       0.044200
     28 H6         146.0790   128.7150   135.4550 h1         1 9I0       0.044200
     29 H7         144.3230   128.9440   135.2750 h1         1 9I0       0.044200
     30 H8         145.1060   126.1580   131.2540 hc         1 9I0       0.043950
     31 H9         146.6770   125.4890   131.6670 hc         1 9I0       0.043950
     32 H10        143.0200   126.7310   134.8650 hc         1 9I0       0.043950
     33 H11        143.2110   127.3010   133.2130 hc         1 9I0       0.043950
     34 H12        144.8590   123.8520   132.1920 hc         1 9I0       0.031450
     35 H13        145.6690   124.3480   133.6690 hc         1 9I0       0.031450
     36 H14        142.8640   125.0660   132.6990 hc         1 9I0       0.031450
     37 H15        143.3750   124.4950   134.2760 hc         1 9I0       0.031450
     38 H16        144.2900   131.2070   135.1440 hc         1 9I0       0.038700
     39 H17        145.9550   131.2550   135.4120 hc         1 9I0       0.038700
     40 H18        146.1090   133.4180   133.9770 hc         1 9I0       0.047700
     41 H19        144.3330   133.5720   136.4580 hc         1 9I0       0.024200
     42 H20        146.0780   133.4290   136.4720 hc         1 9I0       0.024200
     43 H21        147.5040   135.2700   135.3250 ha         1 9I0       0.111000
     44 H22        143.3020   135.7600   136.2170 ha         1 9I0       0.111000
     45 H23        147.7510   137.7390   135.1540 ha         1 9I0       0.092500
     46 H24        143.5560   138.2260   136.0460 ha         1 9I0       0.092500
     47 H25        145.7790   139.2210   135.5150 ha         1 9I0       0.089000
@<TRIPOS>BOND
     1     1     6 1   
     2     1     8 1   
     3     1    13 1   
     4     2     4 1   
     5     2     6 1   
     6     2     9 1   
     7     2    24 1   
     8     3    13 2   
     9     4     8 1   
    10     4    10 1   
    11     4    25 1   
    12     5    17 1   
    13     6    26 1   
    14     6    27 1   
    15     7    17 1   
    16     8    28 1   
    17     8    29 1   
    18     9    11 1   
    19     9    30 1   
    20     9    31 1   
    21    10    12 1   
    22    10    32 1   
    23    10    33 1   
    24    11    12 1   
    25    11    34 1   
    26    11    35 1   
    27    12    36 1   
    28    12    37 1   
    29    13    14 1   
    30    14    15 1   
    31    14    38 1   
    32    14    39 1   
    33    15    16 1   
    34    15    17 1   
    35    15    40 1   
    36    16    18 1   
    37    16    41 1   
    38    16    42 1   
    39    18    19 ar  
    40    18    20 ar  
    41    19    21 ar  
    42    19    43 1   
    43    20    22 ar  
    44    20    44 1   
    45    21    23 ar  
    46    21    45 1   
    47    22    23 ar  
    48    22    46 1   
    49    23    47 1   
@<TRIPOS>SUBSTRUCTURE
     1 9I0         1 TEMP              0 ****  ****    0 ROOT
