@<TRIPOS>MOLECULE
9I0
   47    49     1     0     0
SMALL
bcc


@<TRIPOS>ATOM
      1 N          145.3990   129.4190   133.4580 n          1 9I0      -0.503800
      2 C          145.9270   127.1800   132.9530 c5         1 9I0      -0.076700
      3 O          145.5450   131.2930   132.2330 o          1 9I0      -0.571100
      4 C1         145.1650   127.2160   134.2910 c5         1 9I0      -0.076700
      5 O1         143.0350   133.2380   133.6420 o          1 9I0      -0.834300
      6 C2         145.6310   128.5410   132.3250 c5         1 9I0       0.113000
      7 O2         144.5840   134.4680   132.6100 o          1 9I0      -0.834300
      8 C3         145.2010   128.6880   134.7020 c5         1 9I0       0.113000
      9 C4         145.5240   125.9930   132.0710 c6         1 9I0      -0.067900
     10 C5         143.7650   126.6470   134.1020 c6         1 9I0      -0.067900
     11 C6         145.0960   124.8110   132.9330 c6         1 9I0      -0.072400
     12 C7         143.8360   125.1550   133.7410 c6         1 9I0      -0.072400
     13 C8         145.3790   130.7580   133.3250 c          1 9I0       0.676100
     14 C9         145.1480   131.5510   134.5920 c3         1 9I0      -0.120400
     15 C10        145.2730   133.0580   134.4110 c3         1 9I0      -0.180700
     16 C11        145.1350   133.7220   135.7940 c3         1 9I0      -0.016100
     17 C12        144.2070   133.6320   133.4530 c          1 9I0       0.941600
     18 C13        145.3320   135.2110   135.7720 ca         1 9I0      -0.031300
     19 C14        146.6130   135.7520   135.6810 ca         1 9I0      -0.111500
     20 C15        144.2500   136.0870   135.8310 ca         1 9I0      -0.111500
     21 C16        146.8100   137.1260   135.6450 ca         1 9I0      -0.137000
     22 C17        144.4400   137.4630   135.7970 ca         1 9I0      -0.137000
     23 C18        145.7220   137.9880   135.7030 ca         1 9I0      -0.150000
     24 H1         146.9990   127.1190   133.1680 hc         1 9I0       0.046200
     25 H2         145.6820   126.6200   135.0470 hc         1 9I0       0.046200
     26 H4         144.7440   128.4940   131.6840 h1         1 9I0       0.044200
     27 H5         146.4560   128.9030   131.7100 h1         1 9I0       0.044200
     28 H6         146.0240   128.8770   135.3980 h1         1 9I0       0.044200
     29 H7         144.2780   128.9910   135.2030 h1         1 9I0       0.044200
     30 H8         144.6910   126.2750   131.4170 hc         1 9I0       0.043950
     31 H9         146.3480   125.7170   131.4090 hc         1 9I0       0.043950
     32 H10        143.1660   126.7880   135.0050 hc         1 9I0       0.043950
     33 H11        143.2520   127.2030   133.3100 hc         1 9I0       0.043950
     34 H12        144.9180   123.9280   132.3150 hc         1 9I0       0.031450
     35 H13        145.9160   124.5490   133.6070 hc         1 9I0       0.031450
     36 H14        142.9450   124.8800   133.1720 hc         1 9I0       0.031450
     37 H15        143.8140   124.5530   134.6520 hc         1 9I0       0.031450
     38 H16        144.1530   131.3130   134.9810 hc         1 9I0       0.038700
     39 H17        145.8520   131.2080   135.3580 hc         1 9I0       0.038700
     40 H18        146.2700   133.2900   134.0240 hc         1 9I0       0.047700
     41 H19        144.1490   133.4850   136.2030 hc         1 9I0       0.024200
     42 H20        145.8680   133.2750   136.4720 hc         1 9I0       0.024200
     43 H21        147.4690   135.0880   135.6400 ha         1 9I0       0.129000
     44 H22        143.2460   135.6850   135.9020 ha         1 9I0       0.129000
     45 H23        147.8150   137.5240   135.5770 ha         1 9I0       0.110500
     46 H24        143.5850   138.1250   135.8460 ha         1 9I0       0.110500
     47 H25        145.8730   139.0600   135.6790 ha         1 9I0       0.107000
@<TRIPOS>BOND
     1     1     6 1   
     2     1     8 1   
     3     1    13 1   
     4     2     4 1   
     5     2     6 1   
     6     2     9 1   
     7     2    24 1   
     8     3    13 2   
     9     4     8 1   
    10     4    10 1   
    11     4    25 1   
    12     5    17 1   
    13     6    26 1   
    14     6    27 1   
    15     7    17 1   
    16     8    28 1   
    17     8    29 1   
    18     9    11 1   
    19     9    30 1   
    20     9    31 1   
    21    10    12 1   
    22    10    32 1   
    23    10    33 1   
    24    11    12 1   
    25    11    34 1   
    26    11    35 1   
    27    12    36 1   
    28    12    37 1   
    29    13    14 1   
    30    14    15 1   
    31    14    38 1   
    32    14    39 1   
    33    15    16 1   
    34    15    17 1   
    35    15    40 1   
    36    16    18 1   
    37    16    41 1   
    38    16    42 1   
    39    18    19 ar  
    40    18    20 ar  
    41    19    21 ar  
    42    19    43 1   
    43    20    22 ar  
    44    20    44 1   
    45    21    23 ar  
    46    21    45 1   
    47    22    23 ar  
    48    22    46 1   
    49    23    47 1   
@<TRIPOS>SUBSTRUCTURE
     1 9I0         1 TEMP              0 ****  ****    0 ROOT
