@<TRIPOS>MOLECULE
9I2
   47    49     1     0     0
SMALL
No Charge or Current Charge


@<TRIPOS>ATOM
      1 N1          32.4320    10.5020    64.1430 nb         1 9I2      -0.269000
      2 N3          33.7470     9.0140    65.5040 nb         1 9I2      -0.221000
      3 C4          36.8470    17.1070    67.2750 ca         1 9I2       0.116100
      4 C5          36.0910    16.2540    68.0990 ca         1 9I2       0.064000
      5 C6          35.3800    15.1840    67.5400 ca         1 9I2      -0.095000
      6 C7          35.4000    14.9420    66.1450 cp         1 9I2      -0.050000
      7 C8          34.6200    13.7880    65.6080 cp         1 9I2       0.001000
      8 C10         32.8270    12.8990    64.1760 ca         1 9I2       0.338000
      9 C13         30.1460    14.5970    64.4280 c3         1 9I2       0.129600
     10 C15         32.7830     9.2960    64.6160 ca         1 9I2       0.369900
     11 C17         34.1610    11.3830    65.5480 ca         1 9I2      -0.151000
     12 O           37.5470    18.1540    67.8080 oh         1 9I2      -0.527100
     13 C3          36.8890    16.8760    65.8930 ca         1 9I2      -0.134000
     14 C2          36.1770    15.8050    65.3130 ca         1 9I2      -0.031300
     15 C1          36.3120    15.6010    63.8020 c3         1 9I2      -0.035100
     16 C           35.5620    16.6720    62.9840 c3         1 9I2      -0.085100
     17 C18         34.8950    12.4740    66.0450 ca         1 9I2      -0.112000
     18 C16         34.4400    10.0690    65.9720 ca         1 9I2       0.163900
     19 N2          32.0790     8.2420    64.1340 nv         1 9I2      -1.060900
     20 C14         33.1210    11.5780    64.6050 ca         1 9I2       0.029000
     21 C9          33.5740    13.9800    64.6790 ca         1 9I2      -0.189000
     22 N           31.7990    13.1250    63.2460 nu         1 9I2      -0.959200
     23 C11         30.9620    14.3360    63.1210 c3         1 9I2       0.232500
     24 C12         30.0610    14.1780    61.8770 c3         1 9I2      -0.095100
     25 H1          34.7980    14.5360    68.1900 ha         1 9I2       0.134000
     26 H2          29.4570    13.7570    64.5940 h1         1 9I2       0.026200
     27 H3          30.8380    14.6260    65.2800 h1         1 9I2       0.026200
     28 H4          37.4000    18.1520    68.7790 ho         1 9I2       0.477000
     29 H5          37.4860    17.5330    65.2650 ha         1 9I2       0.132000
     30 H6          35.9640    14.6080    63.4960 hc         1 9I2       0.053700
     31 H7          37.3730    15.6330    63.5240 hc         1 9I2       0.053700
     32 H8          35.6670    16.4750    61.9110 hc         1 9I2       0.035700
     33 H9          34.4940    16.6770    63.2290 hc         1 9I2       0.035700
     34 H10         35.9650    17.6710    63.1890 hc         1 9I2       0.035700
     35 H11         35.6920    12.3080    66.7670 ha         1 9I2       0.121000
     36 H12         35.2270     9.8570    66.6950 h4         1 9I2       0.023100
     37 H13         31.4960     8.3830    63.3130 hn         1 9I2       0.491500
     38 H14         32.4370     7.3010    64.2850 hn         1 9I2       0.491500
     39 H15         33.3460    14.9880    64.3550 ha         1 9I2       0.124000
     40 H16         31.3800    12.2590    62.9020 hn         1 9I2       0.505000
     41 H17         31.6080    15.2080    62.9470 h1         1 9I2       0.070700
     42 H18         29.4710    15.0870    61.7090 hc         1 9I2       0.045700
     43 H19         30.6680    14.0030    60.9810 hc         1 9I2       0.045700
     44 H20         29.3680    13.3370    61.9980 hc         1 9I2       0.045700
     45 H21         28.9270    15.9280    65.2090 ho         1 9I2       0.447000
     46 F           36.0450    16.4610    69.4360 f          1 9I2      -0.189000
     47 O1          29.4140    15.8340    64.3600 oh         1 9I2      -0.661000
@<TRIPOS>BOND
     1     1    10 ar  
     2     1    20 ar  
     3     2    10 ar  
     4     2    18 ar  
     5     3     4 ar  
     6     3    12 1   
     7     3    13 ar  
     8     4     5 ar  
     9     4    46 1   
    10     5     6 ar  
    11     5    25 1   
    12     6     7 1   
    13     6    14 ar  
    14     7    17 ar  
    15     7    21 ar  
    16     8    20 ar  
    17     8    21 ar  
    18     8    22 1   
    19     9    23 1   
    20     9    26 1   
    21     9    27 1   
    22     9    47 1   
    23    10    19 1   
    24    11    17 ar  
    25    11    18 ar  
    26    11    20 ar  
    27    12    28 1   
    28    13    14 ar  
    29    13    29 1   
    30    14    15 1   
    31    15    16 1   
    32    15    30 1   
    33    15    31 1   
    34    16    32 1   
    35    16    33 1   
    36    16    34 1   
    37    17    35 1   
    38    18    36 1   
    39    19    37 1   
    40    19    38 1   
    41    21    39 1   
    42    22    23 1   
    43    22    40 1   
    44    23    24 1   
    45    23    41 1   
    46    24    42 1   
    47    24    43 1   
    48    24    44 1   
    49    45    47 1   
@<TRIPOS>SUBSTRUCTURE
     1 9I2         1 TEMP              0 ****  ****    0 ROOT
