@<TRIPOS>MOLECULE
9I2
   47    49     1     0     0
SMALL
abcg2


@<TRIPOS>ATOM
      1 N1          32.4410    10.5490    64.1630 nb         1 9I2      -0.269000
      2 N3          33.8910     9.0310    65.2790 nb         1 9I2      -0.221000
      3 C4          36.7570    17.1310    67.2390 ca         1 9I2       0.116100
      4 C5          36.0040    16.2930    68.0520 ca         1 9I2       0.064000
      5 C6          35.3260    15.2080    67.5480 ca         1 9I2      -0.095000
      6 C7          35.3720    14.9210    66.1840 cp         1 9I2      -0.050000
      7 C8          34.6230    13.7460    65.6750 cp         1 9I2       0.001000
      8 C10         32.7520    12.9170    64.3230 ca         1 9I2       0.338000
      9 C13         30.1720    14.7420    64.4150 c3         1 9I2       0.129600
     10 C15         32.8260     9.3350    64.4890 ca         1 9I2       0.369900
     11 C17         34.2640    11.3860    65.4920 ca         1 9I2      -0.151000
     12 O           37.4340    18.2000    67.6980 oh         1 9I2      -0.527100
     13 C3          36.8060    16.8310    65.8840 ca         1 9I2      -0.134000
     14 C2          36.1290    15.7430    65.3400 ca         1 9I2      -0.031300
     15 C1          36.2530    15.4930    63.8590 c3         1 9I2      -0.035100
     16 C           35.4150    16.4540    63.0180 c3         1 9I2      -0.085100
     17 C18         35.0060    12.4720    66.0030 ca         1 9I2      -0.112000
     18 C16         34.5720    10.0320    65.7550 ca         1 9I2       0.163900
     19 N2          32.1090     8.2810    64.0440 nv         1 9I2      -1.060900
     20 C14         33.1510    11.5810    64.6580 ca         1 9I2       0.029000
     21 C9          33.4900    13.9580    64.8540 ca         1 9I2      -0.189000
     22 N           31.6910    13.0680    63.4850 nu         1 9I2      -0.959200
     23 C11         31.0300    14.3260    63.2200 c3         1 9I2       0.232500
     24 C12         30.2130    14.2020    61.9430 c3         1 9I2      -0.095100
     25 H1          34.7460    14.5870    68.2190 ha         1 9I2       0.134000
     26 H2          29.3660    14.0040    64.5320 h1         1 9I2       0.026200
     27 H3          30.7790    14.7030    65.3280 h1         1 9I2       0.026200
     28 H4          37.3350    18.2930    68.6530 ho         1 9I2       0.477000
     29 H5          37.4040    17.4660    65.2390 ha         1 9I2       0.132000
     30 H6          35.9720    14.4660    63.6270 hc         1 9I2       0.053700
     31 H7          37.3020    15.5970    63.5720 hc         1 9I2       0.053700
     32 H8          35.5470    16.2500    61.9550 hc         1 9I2       0.035700
     33 H9          34.3520    16.3630    63.2460 hc         1 9I2       0.035700
     34 H10         35.7040    17.4910    63.1960 hc         1 9I2       0.035700
     35 H11         35.8700    12.2870    66.6300 ha         1 9I2       0.121000
     36 H12         35.4240     9.7940    66.3870 h4         1 9I2       0.023100
     37 H13         31.4440     8.4290    63.3060 hn         1 9I2       0.491500
     38 H14         32.5180     7.3650    64.1090 hn         1 9I2       0.491500
     39 H15         33.2020    14.9810    64.6490 ha         1 9I2       0.124000
     40 H16         31.1620    12.2260    63.3130 hn         1 9I2       0.505000
     41 H17         31.7990    15.0900    63.0630 h1         1 9I2       0.070700
     42 H18         29.7120    15.1390    61.7070 hc         1 9I2       0.045700
     43 H19         30.8510    13.9380    61.0990 hc         1 9I2       0.045700
     44 H20         29.4480    13.4290    62.0480 hc         1 9I2       0.045700
     45 H21         29.0930    16.2730    64.9170 ho         1 9I2       0.447000
     46 F           35.9430    16.5670    69.3720 f          1 9I2      -0.189000
     47 O1          29.6720    16.0390    64.1870 oh         1 9I2      -0.661000
@<TRIPOS>BOND
     1     1    10 ar  
     2     1    20 ar  
     3     2    10 ar  
     4     2    18 ar  
     5     3     4 ar  
     6     3    12 1   
     7     3    13 ar  
     8     4     5 ar  
     9     4    46 1   
    10     5     6 ar  
    11     5    25 1   
    12     6     7 1   
    13     6    14 ar  
    14     7    17 ar  
    15     7    21 ar  
    16     8    20 ar  
    17     8    21 ar  
    18     8    22 1   
    19     9    23 1   
    20     9    26 1   
    21     9    27 1   
    22     9    47 1   
    23    10    19 1   
    24    11    17 ar  
    25    11    18 ar  
    26    11    20 ar  
    27    12    28 1   
    28    13    14 ar  
    29    13    29 1   
    30    14    15 1   
    31    15    16 1   
    32    15    30 1   
    33    15    31 1   
    34    16    32 1   
    35    16    33 1   
    36    16    34 1   
    37    17    35 1   
    38    18    36 1   
    39    19    37 1   
    40    19    38 1   
    41    21    39 1   
    42    22    23 1   
    43    22    40 1   
    44    23    24 1   
    45    23    41 1   
    46    24    42 1   
    47    24    43 1   
    48    24    44 1   
    49    45    47 1   
@<TRIPOS>SUBSTRUCTURE
     1 9I2         1 TEMP              0 ****  ****    0 ROOT
