@<TRIPOS>MOLECULE
9I4
   95   101     1     0     0
SMALL
abcg2


@<TRIPOS>ATOM
      1 C10         -1.4720    19.7140   -14.8490 c3         1 9I4       0.218100
      2 C13         -0.1620    19.7070   -11.2730 ca         1 9I4       0.059000
      3 C15          1.1380    18.0830    -9.6650 cg         1 9I4      -0.049300
      4 C17          2.2320    17.3890    -7.5100 cd         1 9I4       0.036600
      5 C22          2.8940    16.1640    -7.1670 ca         1 9I4      -0.101800
      6 C24          4.0680    14.4120    -6.0230 ca         1 9I4      -0.131300
      7 C26          3.9830    13.6300    -7.1910 ca         1 9I4      -0.096000
      8 C28          2.8310    15.3570    -8.3000 ca         1 9I4       0.073100
      9 C02          1.4650    22.3760   -22.8850 c          1 9I4       0.612700
     10 C04          0.7380    21.7970   -20.6290 c3         1 9I4       0.100000
     11 C07          0.9380    21.7020   -16.9110 c6         1 9I4       0.167300
     12 C08          0.4650    20.6610   -15.9170 c6         1 9I4       0.164800
     13 C11         -1.1370    20.1510   -13.4470 ca         1 9I4      -0.095300
     14 C12         -0.4650    19.3050   -12.5790 ca         1 9I4      -0.097000
     15 C14          0.5390    18.8310   -10.4020 ch         1 9I4      -0.151000
     16 C16          1.8350    17.2240    -8.8020 cc         1 9I4       0.087400
     17 C19          0.9770    18.3440    -5.5080 c          1 9I4       0.728000
     18 C23          3.5180    15.6830    -6.0130 ca         1 9I4      -0.017000
     19 C27          3.3680    14.0810    -8.3460 ca         1 9I4      -0.126000
     20 C30         -0.5430    20.9790   -10.8400 ca         1 9I4      -0.090000
     21 C31         -1.2130    21.8270   -11.7100 ca         1 9I4      -0.121000
     22 C32         -1.5050    21.4210   -13.0030 ca         1 9I4      -0.097000
     23 C33         -1.5540    20.4070   -17.1490 c6         1 9I4       0.164800
     24 C34         -1.0760    21.4460   -18.1440 c6         1 9I4       0.167300
     25 C35          2.2930    23.3000   -23.7230 ca         1 9I4      -0.155600
     26 C36          3.0140    22.7460   -24.7720 ca         1 9I4      -0.052000
     27 C37          3.8250    23.5490   -25.5760 ca         1 9I4       0.058000
     28 C38          4.6060    22.9540   -26.6020 cg         1 9I4      -0.156000
     29 C39          5.2900    22.4170   -27.4410 ch         1 9I4      -0.038300
     30 C40          6.1060    21.7830   -28.3900 cd         1 9I4       0.082400
     31 C41          7.1220    22.2660   -29.1570 cc         1 9I4       0.037600
     32 C42          7.6220    23.6580   -29.2230 c3         1 9I4      -0.185200
     33 C43          8.9920    23.8920   -28.5230 c          1 9I4       0.729000
     34 C46          7.6010    21.1310   -29.8900 ca         1 9I4      -0.101800
     35 C47          8.6200    20.9310   -30.8270 ca         1 9I4      -0.016000
     36 C48          8.8160    19.6650   -31.3520 ca         1 9I4      -0.132300
     37 C49          9.8990    19.4000   -32.3580 c3         1 9I4      -0.031800
     38 C50          7.9910    18.6040   -30.9280 ca         1 9I4      -0.096000
     39 C51          6.9820    18.7710   -29.9970 ca         1 9I4      -0.126000
     40 C52          6.8150    20.0510   -29.4940 ca         1 9I4       0.073100
     41 C54          3.8720    24.9280   -25.3440 ca         1 9I4      -0.076000
     42 C55          3.1310    25.4800   -24.3140 ca         1 9I4      -0.122000
     43 C56          2.3510    24.6730   -23.4960 ca         1 9I4      -0.102000
     44 N03          1.4030    22.6680   -21.5770 ns         1 9I4      -0.505900
     45 N06          0.3730    21.4490   -18.2230 n3         1 9I4      -0.723600
     46 N09         -0.9830    20.6520   -15.8380 n3         1 9I4      -0.723600
     47 O01          0.9060    21.4070   -23.3780 o          1 9I4      -0.603100
     48 O20          0.9400    19.2360    -4.6420 o          1 9I4      -0.719500
     49 O21          0.2700    17.3250    -5.5840 o          1 9I4      -0.719500
     50 O29          2.1880    15.9950    -9.2990 os         1 9I4      -0.180200
     51 O44          9.5110    22.9260   -27.9390 o          1 9I4      -0.718000
     52 O45          9.4340    25.0520   -28.6190 o          1 9I4      -0.718000
     53 O53          5.9050    20.4410   -28.5790 os         1 9I4      -0.177200
     54 H101        -2.5600    19.6550   -14.9500 h1         1 9I4       0.036200
     55 H102        -1.0890    18.6940   -15.0170 h1         1 9I4       0.036200
     56 H261         4.4160    12.6360    -7.1850 ha         1 9I4       0.094000
     57 H042        -0.3130    21.6950   -20.9060 h1         1 9I4       0.057200
     58 H041         1.1780    20.7960   -20.6560 h1         1 9I4       0.057200
     59 H051         1.9530    22.5080   -19.0260 h1         1 9I4       0.032200
     60 H052         0.4160    23.3560   -19.1630 h1         1 9I4       0.032200
     61 H072         2.0270    21.6580   -16.9760 h1         1 9I4       0.036700
     62 H071         0.6730    22.7050   -16.5350 h1         1 9I4       0.036700
     63 H082         0.8600    19.6720   -16.2080 h1         1 9I4       0.041200
     64 H081         0.8830    20.8960   -14.9360 h1         1 9I4       0.041200
     65 H121        -0.1630    18.3200   -12.9160 ha         1 9I4       0.117000
     66 H181         2.9800    18.8530    -6.1770 hc         1 9I4       0.040700
     67 H182         1.7120    19.4260    -7.2320 hc         1 9I4       0.040700
     68 H231         3.5740    16.2970    -5.1220 ha         1 9I4       0.132000
     69 H253         5.7810    13.5750    -5.0170 hc         1 9I4       0.030367
     70 H252         4.7560    14.5690    -3.9870 hc         1 9I4       0.030367
     71 H251         4.2420    12.9500    -4.4510 hc         1 9I4       0.030367
     72 H271         3.3110    13.4650    -9.2330 ha         1 9I4       0.115000
     73 H301        -0.3130    21.2990    -9.8320 ha         1 9I4       0.129000
     74 H311        -1.5070    22.8130   -11.3740 ha         1 9I4       0.107000
     75 H321        -2.0210    22.0930   -13.6770 ha         1 9I4       0.115000
     76 H332        -2.6430    20.4550   -17.0790 h1         1 9I4       0.041200
     77 H331        -1.2960    19.4020   -17.5260 h1         1 9I4       0.041200
     78 H342        -1.4660    22.4370   -17.8540 h1         1 9I4       0.036700
     79 H341        -1.5030    21.2080   -19.1200 h1         1 9I4       0.036700
     80 H361         2.9680    21.6810   -24.9590 ha         1 9I4       0.140000
     81 H422         6.8890    24.3400   -28.7810 hc         1 9I4       0.039700
     82 H421         7.7150    23.9630   -30.2700 hc         1 9I4       0.039700
     83 H471         9.2450    21.7580   -31.1420 ha         1 9I4       0.131000
     84 H491        10.6320    18.6880   -31.9740 hc         1 9I4       0.030367
     85 H493         9.4930    18.9740   -33.2770 hc         1 9I4       0.030367
     86 H492        10.4310    20.3130   -32.6220 hc         1 9I4       0.030367
     87 H501         8.1550    17.6170   -31.3460 ha         1 9I4       0.094000
     88 H511         6.3610    17.9440   -29.6810 ha         1 9I4       0.116000
     89 H541         4.4910    25.5580   -25.9700 ha         1 9I4       0.131000
     90 H551         3.1600    26.5480   -24.1450 ha         1 9I4       0.110000
     91 H561         1.7740    25.1260   -22.7000 ha         1 9I4       0.105000
     92 H031         2.0090    23.3850   -21.2100 hn         1 9I4       0.314500
     93 C18          2.0290    18.5650    -6.6350 c3         1 9I4      -0.186200
     94 C05          0.8860    22.3610   -19.2220 c3         1 9I4       0.155800
     95 C25          4.7470    13.8500    -4.8050 c3         1 9I4      -0.032800
@<TRIPOS>BOND
     1     1    13 1   
     2     1    46 1   
     3     1    54 1   
     4     1    55 1   
     5     2    14 ar  
     6     2    15 1   
     7     2    20 ar  
     8     3    15 3   
     9     3    16 1   
    10     4     5 1   
    11     4    16 2   
    12     4    93 1   
    13     5     8 ar  
    14     5    18 ar  
    15     6     7 ar  
    16     6    18 ar  
    17     6    95 1   
    18     7    19 ar  
    19     7    56 1   
    20     8    19 ar  
    21     8    50 1   
    22     9    25 1   
    23     9    44 1   
    24     9    47 2   
    25    10    44 1   
    26    10    57 1   
    27    10    58 1   
    28    10    94 1   
    29    11    12 1   
    30    11    45 1   
    31    11    61 1   
    32    11    62 1   
    33    12    46 1   
    34    12    63 1   
    35    12    64 1   
    36    13    14 ar  
    37    13    22 ar  
    38    14    65 1   
    39    16    50 1   
    40    17    48 1   
    41    17    49 1   
    42    17    93 1   
    43    18    68 1   
    44    19    72 1   
    45    20    21 ar  
    46    20    73 1   
    47    21    22 ar  
    48    21    74 1   
    49    22    75 1   
    50    23    24 1   
    51    23    46 1   
    52    23    76 1   
    53    23    77 1   
    54    24    45 1   
    55    24    78 1   
    56    24    79 1   
    57    25    26 ar  
    58    25    43 ar  
    59    26    27 ar  
    60    26    80 1   
    61    27    28 1   
    62    27    41 ar  
    63    28    29 3   
    64    29    30 1   
    65    30    31 2   
    66    30    53 1   
    67    31    32 1   
    68    31    34 1   
    69    32    33 1   
    70    32    81 1   
    71    32    82 1   
    72    33    51 1   
    73    33    52 1   
    74    34    35 ar  
    75    34    40 ar  
    76    35    36 ar  
    77    35    83 1   
    78    36    37 1   
    79    36    38 ar  
    80    37    84 1   
    81    37    85 1   
    82    37    86 1   
    83    38    39 ar  
    84    38    87 1   
    85    39    40 ar  
    86    39    88 1   
    87    40    53 1   
    88    41    42 ar  
    89    41    89 1   
    90    42    43 ar  
    91    42    90 1   
    92    43    91 1   
    93    44    92 1   
    94    45    94 1   
    95    59    94 1   
    96    60    94 1   
    97    66    93 1   
    98    67    93 1   
    99    69    95 1   
   100    70    95 1   
   101    71    95 1   
@<TRIPOS>SUBSTRUCTURE
     1 9I4         1 TEMP              0 ****  ****    0 ROOT
