@<TRIPOS>MOLECULE
9I4
   95   101     1     0     0
SMALL
No Charge or Current Charge


@<TRIPOS>ATOM
      1 C10         -2.2560    21.0260   -14.2050 c3         1 9I4       0.218100
      2 C13          0.0100    20.2480   -11.1980 ca         1 9I4       0.059000
      3 C15          1.3150    18.1910   -10.1690 cg         1 9I4      -0.049300
      4 C17          2.8960    17.1530    -8.4830 cd         1 9I4       0.036600
      5 C22          3.4520    15.8370    -8.3720 ca         1 9I4      -0.101800
      6 C24          4.6890    13.9100    -7.6200 ca         1 9I4      -0.131300
      7 C26          4.1670    13.1790    -8.7180 ca         1 9I4      -0.096000
      8 C28          2.9480    15.1330    -9.4330 ca         1 9I4       0.073100
      9 C02          1.1540    22.0570   -22.4810 c          1 9I4       0.612700
     10 C04         -0.6480    22.0960   -20.7130 c3         1 9I4       0.100000
     11 C07          0.3660    21.6860   -16.9860 c6         1 9I4       0.167300
     12 C08         -0.2940    21.0220   -15.7350 c6         1 9I4       0.164800
     13 C11         -1.4340    21.1920   -12.9300 ca         1 9I4      -0.095300
     14 C12         -0.7490    20.0930   -12.3720 ca         1 9I4      -0.097000
     15 C14          0.7050    19.1350   -10.6440 ch         1 9I4      -0.151000
     16 C16          2.0900    17.1360    -9.6130 cc         1 9I4       0.087400
     17 C19          2.1920    18.2730    -6.3550 c          1 9I4       0.728000
     18 C23          4.3250    15.2650    -7.4380 ca         1 9I4      -0.017000
     19 C27          3.2870    13.7910    -9.6370 ca         1 9I4      -0.126000
     20 C30          0.0840    21.5070   -10.5750 ca         1 9I4      -0.090000
     21 C31         -0.5970    22.6070   -11.1250 ca         1 9I4      -0.121000
     22 C32         -1.3530    22.4490   -12.3000 ca         1 9I4      -0.097000
     23 C33         -2.5080    21.6070   -16.5970 c6         1 9I4       0.164800
     24 C34         -1.8470    22.2720   -17.8480 c6         1 9I4       0.167300
     25 C35          1.7750    22.8100   -23.6410 ca         1 9I4      -0.155600
     26 C36          2.8780    22.2420   -24.3220 ca         1 9I4      -0.052000
     27 C37          3.4810    22.9090   -25.4040 ca         1 9I4       0.058000
     28 C38          4.5950    22.3150   -26.0830 cg         1 9I4      -0.156000
     29 C39          5.5360    21.8090   -26.6740 ch         1 9I4      -0.038300
     30 C40          6.5960    21.2440   -27.4300 cd         1 9I4       0.082400
     31 C41          7.2310    21.7190   -28.5750 cc         1 9I4       0.037600
     32 C42          6.9760    22.9870   -29.3510 c3         1 9I4      -0.185200
     33 C43          7.9010    24.1160   -28.8850 c          1 9I4       0.729000
     34 C46          8.2210    20.6920   -28.8600 ca         1 9I4      -0.101800
     35 C47          9.1760    20.6010   -29.8830 ca         1 9I4      -0.016000
     36 C48         10.0210    19.4640   -29.9080 ca         1 9I4      -0.132300
     37 C49         11.0740    19.3250   -30.9970 c3         1 9I4      -0.031800
     38 C50          9.8940    18.4590   -28.9130 ca         1 9I4      -0.096000
     39 C51          8.9270    18.5760   -27.8910 ca         1 9I4      -0.126000
     40 C52          8.1110    19.7110   -27.9040 ca         1 9I4       0.073100
     41 C54          2.9880    24.1570   -25.8200 ca         1 9I4      -0.076000
     42 C55          1.8950    24.7340   -25.1540 ca         1 9I4      -0.122000
     43 C56          1.2900    24.0700   -24.0740 ca         1 9I4      -0.102000
     44 N03          0.0710    22.6500   -21.8700 ns         1 9I4      -0.505900
     45 N06         -0.5230    21.6590   -18.1890 n3         1 9I4      -0.723600
     46 N09         -1.6180    21.6320   -15.3970 n3         1 9I4      -0.723600
     47 O01          1.5850    20.9760   -22.1020 o          1 9I4      -0.603100
     48 O20          2.5140    17.6090    -5.3810 o          1 9I4      -0.719500
     49 O21          1.0970    18.8000    -6.4810 o          1 9I4      -0.719500
     50 O29          2.1070    15.8830   -10.2250 os         1 9I4      -0.180200
     51 O44          7.5430    24.7950   -27.9340 o          1 9I4      -0.718000
     52 O45          9.0040    24.2040   -29.4020 o          1 9I4      -0.718000
     53 O53          7.1240    20.0410   -27.0330 os         1 9I4      -0.177200
     54 H101        -3.2370    21.4900   -14.0360 h1         1 9I4       0.036200
     55 H102        -2.4390    19.9570   -14.3800 h1         1 9I4       0.036200
     56 H261         4.4430    12.1360    -8.8570 ha         1 9I4       0.094000
     57 H042        -1.6160    22.6060   -20.6400 h1         1 9I4       0.057200
     58 H041        -0.8410    21.0300   -20.8910 h1         1 9I4       0.057200
     59 H051         1.1190    21.7990   -19.5150 h1         1 9I4       0.032200
     60 H052         0.3020    23.3310   -19.2100 h1         1 9I4       0.032200
     61 H072         1.3100    21.1650   -17.2000 h1         1 9I4       0.036700
     62 H071         0.6250    22.7250   -16.7320 h1         1 9I4       0.036700
     63 H082        -0.4120    19.9460   -15.9330 h1         1 9I4       0.041200
     64 H081         0.4030    21.1170   -14.8890 h1         1 9I4       0.041200
     65 H121        -0.8040    19.1200   -12.8550 ha         1 9I4       0.117000
     66 H181         4.1860    18.2100    -7.1970 hc         1 9I4       0.040700
     67 H182         2.9910    19.2310    -8.1230 hc         1 9I4       0.040700
     68 H231         4.7070    15.8440    -6.6000 ha         1 9I4       0.132000
     69 H253         6.2320    12.4590    -7.1230 hc         1 9I4       0.030367
     70 H252         6.3280    13.9580    -6.1900 hc         1 9I4       0.030367
     71 H251         5.0720    12.7640    -5.8190 hc         1 9I4       0.030367
     72 H271         2.8820    13.2370   -10.4810 ha         1 9I4       0.115000
     73 H301         0.6700    21.6340    -9.6670 ha         1 9I4       0.129000
     74 H311        -0.5380    23.5800   -10.6440 ha         1 9I4       0.107000
     75 H321        -1.8750    23.3040   -12.7250 ha         1 9I4       0.115000
     76 H332        -3.4520    22.1290   -16.3810 h1         1 9I4       0.041200
     77 H331        -2.7680    20.5680   -16.8520 h1         1 9I4       0.041200
     78 H342        -1.7260    23.3470   -17.6490 h1         1 9I4       0.036700
     79 H341        -2.5470    22.1770   -18.6890 h1         1 9I4       0.036700
     80 H361         3.2710    21.2760   -24.0120 ha         1 9I4       0.140000
     81 H422         5.9320    23.2620   -29.1660 hc         1 9I4       0.039700
     82 H421         7.1740    22.7520   -30.4040 hc         1 9I4       0.039700
     83 H471         9.2650    21.3840   -30.6330 ha         1 9I4       0.131000
     84 H491        12.0250    19.7690   -30.6800 hc         1 9I4       0.030367
     85 H493        11.2600    18.2720   -31.2400 hc         1 9I4       0.030367
     86 H492        10.7620    19.8260   -31.9220 hc         1 9I4       0.030367
     87 H501        10.5470    17.5890   -28.9320 ha         1 9I4       0.094000
     88 H511         8.8190    17.8150   -27.1220 ha         1 9I4       0.116000
     89 H541         3.4500    24.6780   -26.6550 ha         1 9I4       0.131000
     90 H551         1.5150    25.7010   -25.4770 ha         1 9I4       0.110000
     91 H561         0.4470    24.5500   -23.5840 ha         1 9I4       0.105000
     92 H031        -0.2320    23.5400   -22.2430 hn         1 9I4       0.314500
     93 C18          3.1530    18.3120    -7.5480 c3         1 9I4      -0.186200
     94 C05          0.1310    22.2600   -19.3810 c3         1 9I4       0.155800
     95 C25          5.6320    13.2360    -6.6350 c3         1 9I4      -0.032800
@<TRIPOS>BOND
     1     1    13 1   
     2     1    46 1   
     3     1    54 1   
     4     1    55 1   
     5     2    14 ar  
     6     2    15 1   
     7     2    20 ar  
     8     3    15 3   
     9     3    16 1   
    10     4     5 1   
    11     4    16 2   
    12     4    93 1   
    13     5     8 ar  
    14     5    18 ar  
    15     6     7 ar  
    16     6    18 ar  
    17     6    95 1   
    18     7    19 ar  
    19     7    56 1   
    20     8    19 ar  
    21     8    50 1   
    22     9    25 1   
    23     9    44 1   
    24     9    47 2   
    25    10    44 1   
    26    10    57 1   
    27    10    58 1   
    28    10    94 1   
    29    11    12 1   
    30    11    45 1   
    31    11    61 1   
    32    11    62 1   
    33    12    46 1   
    34    12    63 1   
    35    12    64 1   
    36    13    14 ar  
    37    13    22 ar  
    38    14    65 1   
    39    16    50 1   
    40    17    48 1   
    41    17    49 1   
    42    17    93 1   
    43    18    68 1   
    44    19    72 1   
    45    20    21 ar  
    46    20    73 1   
    47    21    22 ar  
    48    21    74 1   
    49    22    75 1   
    50    23    24 1   
    51    23    46 1   
    52    23    76 1   
    53    23    77 1   
    54    24    45 1   
    55    24    78 1   
    56    24    79 1   
    57    25    26 ar  
    58    25    43 ar  
    59    26    27 ar  
    60    26    80 1   
    61    27    28 1   
    62    27    41 ar  
    63    28    29 3   
    64    29    30 1   
    65    30    31 2   
    66    30    53 1   
    67    31    32 1   
    68    31    34 1   
    69    32    33 1   
    70    32    81 1   
    71    32    82 1   
    72    33    51 1   
    73    33    52 1   
    74    34    35 ar  
    75    34    40 ar  
    76    35    36 ar  
    77    35    83 1   
    78    36    37 1   
    79    36    38 ar  
    80    37    84 1   
    81    37    85 1   
    82    37    86 1   
    83    38    39 ar  
    84    38    87 1   
    85    39    40 ar  
    86    39    88 1   
    87    40    53 1   
    88    41    42 ar  
    89    41    89 1   
    90    42    43 ar  
    91    42    90 1   
    92    43    91 1   
    93    44    92 1   
    94    45    94 1   
    95    59    94 1   
    96    60    94 1   
    97    66    93 1   
    98    67    93 1   
    99    69    95 1   
   100    70    95 1   
   101    71    95 1   
@<TRIPOS>SUBSTRUCTURE
     1 9I4         1 TEMP              0 ****  ****    0 ROOT
