@<TRIPOS>MOLECULE
9I5
   33    35     1     0     0
SMALL
bcc


@<TRIPOS>ATOM
      1 N1          32.1300     8.2190    65.1720 nv         1 9I5      -0.950500
      2 C4          35.0990    12.4390    66.9160 ca         1 9I5      -0.109000
      3 C5          34.3380    11.3480    66.4560 ca         1 9I5      -0.299600
      4 C6          34.5660    10.0140    66.8660 ca         1 9I5       0.492200
      5 C7          32.8670     9.2790    65.5590 ca         1 9I5       0.893900
      6 C8          33.2910    11.5090    65.5300 ca         1 9I5       0.458600
      7 C10         36.0510    14.9660    68.2390 ca         1 9I5      -0.078000
      8 C13         36.6120    17.0340    66.4890 ca         1 9I5      -0.195000
      9 C12         37.0700    17.1030    67.8030 ca         1 9I5       0.143100
     10 C11         36.7830    16.0570    68.6770 ca         1 9I5      -0.195000
     11 C14         35.8830    15.9370    66.0660 ca         1 9I5      -0.078000
     12 C9          35.5870    14.8770    66.9270 cp         1 9I5      -0.072000
     13 C3          34.8180    13.7050    66.4660 cp         1 9I5      -0.005000
     14 C2          33.7600    13.8810    65.5330 ca         1 9I5      -0.202000
     15 C1          33.0130    12.8290    65.0640 ca         1 9I5       0.080800
     16 O           32.0040    12.9290    64.1880 os         1 9I5      -0.283900
     17 C           31.6720    14.2090    63.6900 c3         1 9I5       0.118700
     18 N2          32.5620    10.4690    65.0880 nb         1 9I5      -0.752000
     19 N           33.8650     9.0040    66.4460 nb         1 9I5      -0.747000
     20 H1          31.5050     8.3230    64.3920 hn         1 9I5       0.439800
     21 H2          32.4750     7.2940    65.3620 hn         1 9I5       0.439800
     22 H3          35.9130    12.2560    67.6070 ha         1 9I5       0.136000
     23 H4          35.3650     9.8040    67.5720 h4         1 9I5       0.022100
     24 H5          35.8240    14.1780    68.9470 ha         1 9I5       0.133500
     25 H6          36.8350    17.8380    65.7990 ha         1 9I5       0.139500
     26 H7          38.0370    18.1310    69.0930 ho         1 9I5       0.427000
     27 H8          37.1210    16.0980    69.7070 ha         1 9I5       0.139500
     28 H9          35.5590    15.9010    65.0330 ha         1 9I5       0.133500
     29 H10         33.5350    14.8880    65.2070 ha         1 9I5       0.138000
     30 H11         30.8460    14.0660    62.9970 h1         1 9I5       0.041700
     31 H12         31.3510    14.8860    64.4870 h1         1 9I5       0.041700
     32 H13         32.5080    14.6670    63.1550 h1         1 9I5       0.041700
     33 O1          37.7740    18.1920    68.1670 oh         1 9I5      -0.493100
@<TRIPOS>BOND
     1     1     5 1   
     2     1    20 1   
     3     1    21 1   
     4     2     3 ar  
     5     2    13 ar  
     6     2    22 1   
     7     3     4 ar  
     8     3     6 ar  
     9     4    19 ar  
    10     4    23 1   
    11     5    18 ar  
    12     5    19 ar  
    13     6    15 ar  
    14     6    18 ar  
    15     7    10 ar  
    16     7    12 ar  
    17     7    24 1   
    18     8     9 ar  
    19     8    11 ar  
    20     8    25 1   
    21     9    10 ar  
    22     9    33 1   
    23    10    27 1   
    24    11    12 ar  
    25    11    28 1   
    26    12    13 1   
    27    13    14 ar  
    28    14    15 ar  
    29    14    29 1   
    30    15    16 1   
    31    16    17 1   
    32    17    30 1   
    33    17    31 1   
    34    17    32 1   
    35    26    33 1   
@<TRIPOS>SUBSTRUCTURE
     1 9I5         1 TEMP              0 ****  ****    0 ROOT
