@<TRIPOS>MOLECULE
9I5
   33    35     1     0     0
SMALL
No Charge or Current Charge


@<TRIPOS>ATOM
      1 N1          32.1730     8.1560    65.1900 nv         1 9I5      -1.060900
      2 C4          35.0670    12.4220    66.9040 ca         1 9I5      -0.091000
      3 C5          34.3130    11.3240    66.4560 ca         1 9I5      -0.169000
      4 C6          34.5900    10.0210    66.9170 ca         1 9I5       0.163900
      5 C7          32.8970     9.2220    65.6190 ca         1 9I5       0.367900
      6 C8          33.2580    11.4960    65.5290 ca         1 9I5       0.065000
      7 C10         36.0670    14.9710    68.2530 ca         1 9I5      -0.060000
      8 C13         36.6690    17.0730    66.4950 ca         1 9I5      -0.177000
      9 C12         37.1220    17.1200    67.8200 ca         1 9I5       0.143100
     10 C11         36.8220    16.0710    68.7010 ca         1 9I5      -0.177000
     11 C14         35.9140    15.9750    66.0460 ca         1 9I5      -0.060000
     12 C9          35.5970    14.9010    66.9170 cp         1 9I5      -0.072000
     13 C3          34.7930    13.7300    66.4400 cp         1 9I5      -0.005000
     14 C2          33.7370    13.8990    65.5120 ca         1 9I5      -0.184000
     15 C1          32.9720    12.7990    65.0560 ca         1 9I5       0.146100
     16 O           31.9350    12.9600    64.1500 os         1 9I5      -0.307100
     17 C           31.5680    14.2410    63.6100 c3         1 9I5       0.141900
     18 N2          32.5500    10.4170    65.1160 nb         1 9I5      -0.226000
     19 N           33.8770     8.9590    66.4960 nb         1 9I5      -0.221000
     20 H1          31.5710     8.2730    64.3770 hn         1 9I5       0.495000
     21 H2          32.5260     7.2180    65.3670 hn         1 9I5       0.495000
     22 H3          35.8810    12.2590    67.6070 ha         1 9I5       0.118000
     23 H4          35.3890     9.8240    67.6290 h4         1 9I5       0.022100
     24 H5          35.8330    14.1730    68.9540 ha         1 9I5       0.115500
     25 H6          36.9050    17.8850    65.8120 ha         1 9I5       0.121500
     26 H7          38.0810    18.0520    69.1900 ho         1 9I5       0.466000
     27 H8          37.1660    16.0990    69.7320 ha         1 9I5       0.121500
     28 H9          35.5840    15.9520    65.0100 ha         1 9I5       0.115500
     29 H10         33.5130    14.9020    65.1660 ha         1 9I5       0.120000
     30 H11         30.7280    14.1330    62.9130 h1         1 9I5       0.041700
     31 H12         31.2620    14.9280    64.4080 h1         1 9I5       0.041700
     32 H13         32.4080    14.6880    63.0610 h1         1 9I5       0.041700
     33 O1          37.8530    18.1880    68.2460 oh         1 9I5      -0.532100
@<TRIPOS>BOND
     1     1     5 1   
     2     1    20 1   
     3     1    21 1   
     4     2     3 ar  
     5     2    13 ar  
     6     2    22 1   
     7     3     4 ar  
     8     3     6 ar  
     9     4    19 ar  
    10     4    23 1   
    11     5    18 ar  
    12     5    19 ar  
    13     6    15 ar  
    14     6    18 ar  
    15     7    10 ar  
    16     7    12 ar  
    17     7    24 1   
    18     8     9 ar  
    19     8    11 ar  
    20     8    25 1   
    21     9    10 ar  
    22     9    33 1   
    23    10    27 1   
    24    11    12 ar  
    25    11    28 1   
    26    12    13 1   
    27    13    14 ar  
    28    14    15 ar  
    29    14    29 1   
    30    15    16 1   
    31    16    17 1   
    32    17    30 1   
    33    17    31 1   
    34    17    32 1   
    35    26    33 1   
@<TRIPOS>SUBSTRUCTURE
     1 9I5         1 TEMP              0 ****  ****    0 ROOT
