@<TRIPOS>MOLECULE
9I6
   76    80     1     0     0
SMALL
No Charge or Current Charge


@<TRIPOS>ATOM
      1 C1          -3.2150    -1.4320    -3.9280 ca         1 9I6      -0.086300
      2 C2          -4.0080    -0.5160    -3.2680 ca         1 9I6      -0.161600
      3 C3          -3.9230    -0.3300    -1.8830 ca         1 9I6      -0.042000
      4 C4          -2.9940    -1.1110    -1.1660 ca         1 9I6      -0.114000
      5 C5          -2.1610    -2.0680    -1.8210 cp         1 9I6      -0.012000
      6 C6          -2.2870    -2.2180    -3.2310 ca         1 9I6      -0.089000
      7 C7          -3.5310    -1.4010    -5.4060 c5         1 9I6       0.147300
      8 N8          -4.5860    -0.3720    -5.4990 ns         1 9I6      -0.520900
      9 C9          -4.8800     0.1580    -4.2600 c          1 9I6       0.581600
     10 O10         -5.7100     1.0250    -4.0430 o          1 9I6      -0.545000
     11 C11         -1.1780    -2.8900    -1.0480 cp         1 9I6      -0.046000
     12 C12         -0.9040    -4.2320    -1.4120 ca         1 9I6      -0.068000
     13 C13          0.0360    -5.0080    -0.7060 ca         1 9I6      -0.113300
     14 C14          0.7130    -4.4460     0.3910 ca         1 9I6      -0.098000
     15 C15          0.4520    -3.1210     0.7760 ca         1 9I6      -0.118000
     16 C16         -0.4830    -2.3510     0.0640 ca         1 9I6      -0.090000
     17 C17          0.3300    -6.4360    -1.1460 c3         1 9I6       0.144300
     18 N18          1.1500    -6.4850    -2.3800 n          1 9I6      -0.405800
     19 C19          2.6200    -6.3700    -2.1880 c3         1 9I6       0.106000
     20 C20          3.3000    -7.7000    -1.7870 c3         1 9I6      -0.098400
     21 C21          3.0240    -8.8580    -2.7710 c3         1 9I6      -0.076400
     22 C22          3.7150   -10.1850    -2.3900 c3         1 9I6      -0.093400
     23 C23          3.3870   -11.3380    -3.3670 c3         1 9I6       0.087000
     24 C24          0.5240    -6.6450    -3.6520 c          1 9I6       0.561100
     25 C25          1.3490    -6.5380    -4.9930 c3         1 9I6       0.104500
     26 O26         -0.6800    -6.8720    -3.7150 o          1 9I6      -0.620100
     27 C27          1.2440    -5.0810    -5.5740 c3         1 9I6       0.182300
     28 C28          1.5790    -3.9520    -4.5730 c3         1 9I6      -0.138100
     29 O29          2.1220    -4.9300    -6.7020 oh         1 9I6      -0.643000
     30 N30          0.9710    -7.5810    -6.0280 n8         1 9I6      -0.978200
     31 N31          1.9610   -11.7470    -3.3330 n          1 9I6      -0.334300
     32 C32          1.0720   -11.2510    -4.2850 c          1 9I6       0.572600
     33 C33         -0.3250   -11.7270    -4.1550 ca         1 9I6      -0.193600
     34 C34         -0.6420   -12.6120    -3.1110 ca         1 9I6       0.182400
     35 N35          0.2850   -13.0860    -2.1750 nc         1 9I6      -0.616100
     36 C36          1.5280   -12.6210    -2.3480 cd         1 9I6       0.504800
     37 C37         -1.3220   -11.2960    -5.0580 ca         1 9I6      -0.038000
     38 C38         -2.6440   -11.7470    -4.9230 ca         1 9I6       0.109000
     39 C39         -2.9700   -12.6330    -3.8810 ca         1 9I6       0.011100
     40 C40         -1.9710   -13.0570    -2.9870 ca         1 9I6      -0.070000
     41 Br1         -4.7620   -13.2800    -3.6500 br         1 9I6      -0.052100
     42 Cl1         -3.8660   -11.1890    -6.0650 cl         1 9I6      -0.156000
     43 O43          1.4080   -10.4640    -5.1610 o          1 9I6      -0.530000
     44 H1          -4.5560     0.3950    -1.3750 ha         1 9I6       0.135000
     45 H2          -2.9280    -0.9850    -0.0880 ha         1 9I6       0.118000
     46 H3          -1.6630    -2.9240    -3.7730 ha         1 9I6       0.133000
     47 H4          -3.8840    -2.3830    -5.7520 h1         1 9I6       0.061700
     48 H5          -1.4310    -4.6780    -2.2510 ha         1 9I6       0.133000
     49 H6           1.4460    -5.0310     0.9420 ha         1 9I6       0.107000
     50 H7           0.9800    -2.6880     1.6220 ha         1 9I6       0.115000
     51 H8          -0.6560    -1.3210     0.3670 ha         1 9I6       0.117000
     52 H9          -0.6160    -6.9740    -1.2900 h1         1 9I6       0.061700
     53 H10          0.8620    -6.9600    -0.3420 h1         1 9I6       0.061700
     54 H11          3.1100    -5.9600    -3.0760 h1         1 9I6       0.054700
     55 H12          2.8040    -5.6400    -1.3880 h1         1 9I6       0.054700
     56 H13          4.3810    -7.5340    -1.7120 hc         1 9I6       0.046200
     57 H14          2.9560    -7.9920    -0.7870 hc         1 9I6       0.046200
     58 H15          1.9410    -9.0240    -2.8160 hc         1 9I6       0.051700
     59 H16          3.3510    -8.5660    -3.7760 hc         1 9I6       0.051700
     60 H17          4.8010   -10.0320    -2.3780 hc         1 9I6       0.047700
     61 H18          3.4230   -10.4750    -1.3730 hc         1 9I6       0.047700
     62 H19          4.0040   -12.2070    -3.1020 h1         1 9I6       0.072200
     63 H20          3.6770   -11.0490    -4.3860 h1         1 9I6       0.072200
     64 H21          2.4040    -6.7180    -4.7680 h1         1 9I6       0.076700
     65 H22          0.2040    -4.9310    -5.8970 h1         1 9I6       0.044700
     66 H23          0.9030    -3.9690    -3.7110 hc         1 9I6       0.044033
     67 H24          2.6100    -4.0370    -4.2100 hc         1 9I6       0.044033
     68 H25          1.4700    -2.9710    -5.0520 hc         1 9I6       0.044033
     69 H26          1.8530    -4.1090    -7.1670 ho         1 9I6       0.440000
     70 H27          1.1710    -8.5240    -5.6590 hn         1 9I6       0.411500
     71 H28         -0.0510    -7.5820    -6.1250 hn         1 9I6       0.411500
     72 H30          2.2920   -12.9500    -1.6540 h5         1 9I6       0.049800
     73 H31         -1.0790   -10.6110    -5.8670 ha         1 9I6       0.156000
     74 H32         -2.2310   -13.7420    -2.1850 ha         1 9I6       0.152000
     75 H29         -5.0700    -0.0510    -6.3280 hn         1 9I6       0.332500
     76 H33         -2.6410    -1.1310    -5.9910 h1         1 9I6       0.061700
@<TRIPOS>BOND
     1     1     2 ar  
     2     1     6 ar  
     3     1     7 1   
     4     2     3 ar  
     5     2     9 1   
     6     3     4 ar  
     7     3    44 1   
     8     4     5 ar  
     9     4    45 1   
    10     5     6 ar  
    11     5    11 1   
    12     6    46 1   
    13     7     8 1   
    14     7    47 1   
    15     7    76 1   
    16     8     9 1   
    17     8    75 1   
    18     9    10 2   
    19    11    12 ar  
    20    11    16 ar  
    21    12    13 ar  
    22    12    48 1   
    23    13    14 ar  
    24    13    17 1   
    25    14    15 ar  
    26    14    49 1   
    27    15    16 ar  
    28    15    50 1   
    29    16    51 1   
    30    17    18 1   
    31    17    52 1   
    32    17    53 1   
    33    18    19 1   
    34    18    24 1   
    35    19    20 1   
    36    19    54 1   
    37    19    55 1   
    38    20    21 1   
    39    20    56 1   
    40    20    57 1   
    41    21    22 1   
    42    21    58 1   
    43    21    59 1   
    44    22    23 1   
    45    22    60 1   
    46    22    61 1   
    47    23    31 1   
    48    23    62 1   
    49    23    63 1   
    50    24    25 1   
    51    24    26 2   
    52    25    27 1   
    53    25    30 1   
    54    25    64 1   
    55    27    28 1   
    56    27    29 1   
    57    27    65 1   
    58    28    66 1   
    59    28    67 1   
    60    28    68 1   
    61    29    69 1   
    62    30    70 1   
    63    30    71 1   
    64    31    32 1   
    65    31    36 1   
    66    32    33 1   
    67    32    43 2   
    68    33    34 ar  
    69    33    37 ar  
    70    34    35 1   
    71    34    40 ar  
    72    35    36 2   
    73    36    72 1   
    74    37    38 ar  
    75    37    73 1   
    76    38    39 ar  
    77    38    42 1   
    78    39    40 ar  
    79    39    41 1   
    80    40    74 1   
@<TRIPOS>SUBSTRUCTURE
     1 9I6         1 TEMP              0 ****  ****    0 ROOT
