@<TRIPOS>MOLECULE
9I6
   76    80     1     0     0
SMALL
abcg2


@<TRIPOS>ATOM
      1 C1          -4.0380    -2.4380    -3.5040 ca         1 9I6      -0.086300
      2 C2          -4.6570    -1.3650    -2.8880 ca         1 9I6      -0.161600
      3 C3          -4.1060    -0.7630    -1.7690 ca         1 9I6      -0.042000
      4 C4          -2.9130    -1.2670    -1.2780 ca         1 9I6      -0.114000
      5 C5          -2.2700    -2.3510    -1.8930 cp         1 9I6      -0.012000
      6 C6          -2.8450    -2.9400    -3.0230 ca         1 9I6      -0.089000
      7 C7          -4.8610    -2.8710    -4.6800 c5         1 9I6       0.147300
      8 N8          -5.9620    -1.9370    -4.6310 ns         1 9I6      -0.520900
      9 C9          -5.9020    -1.0400    -3.6210 c          1 9I6       0.581600
     10 O10         -6.7030    -0.1550    -3.3730 o          1 9I6      -0.545000
     11 C11         -0.9950    -2.8700    -1.3580 cp         1 9I6      -0.046000
     12 C12         -0.7170    -4.2370    -1.4060 ca         1 9I6      -0.068000
     13 C13          0.4900    -4.7510    -0.9500 ca         1 9I6      -0.113300
     14 C14          1.4250    -3.8790    -0.3950 ca         1 9I6      -0.098000
     15 C15          1.1600    -2.5180    -0.3320 ca         1 9I6      -0.118000
     16 C16         -0.0360    -2.0130    -0.8180 ca         1 9I6      -0.090000
     17 C17          0.8100    -6.2160    -1.1100 c3         1 9I6       0.144300
     18 N18          1.6440    -6.4380    -2.2910 n          1 9I6      -0.405800
     19 C19          3.0660    -6.6230    -2.0430 c3         1 9I6       0.106000
     20 C20          3.4060    -8.0210    -1.5360 c3         1 9I6      -0.098400
     21 C21          3.0150    -9.1320    -2.4990 c3         1 9I6      -0.076400
     22 C22          3.3100   -10.5120    -1.9270 c3         1 9I6      -0.093400
     23 C23          2.9350   -11.6710    -2.8410 c3         1 9I6       0.087000
     24 C24          1.0400    -6.4360    -3.4980 c          1 9I6       0.561100
     25 C25          1.8610    -6.4760    -4.7930 c3         1 9I6       0.104500
     26 O26         -0.1800    -6.3610    -3.6020 o          1 9I6      -0.620100
     27 C27          1.8630    -5.0600    -5.3940 c3         1 9I6       0.182300
     28 C28          2.2670    -3.9790    -4.3970 c3         1 9I6      -0.138100
     29 O29          2.7530    -5.0930    -6.4880 oh         1 9I6      -0.643000
     30 N30          1.3210    -7.4210    -5.7490 n8         1 9I6      -0.978200
     31 N31          1.5140   -11.6570    -3.2010 n          1 9I6      -0.334300
     32 C32          1.1140   -11.1500    -4.4250 c          1 9I6       0.572600
     33 C33         -0.3340   -11.1010    -4.5960 ca         1 9I6      -0.193600
     34 C34         -1.1670   -11.5590    -3.5710 ca         1 9I6       0.182400
     35 N35         -0.6660   -12.0710    -2.4010 nc         1 9I6      -0.616100
     36 C36          0.6100   -12.0880    -2.2780 cd         1 9I6       0.504800
     37 C37         -0.8780   -10.5860    -5.7710 ca         1 9I6      -0.038000
     38 C38         -2.2440   -10.5200    -5.9270 ca         1 9I6       0.109000
     39 C39         -3.0870   -10.9760    -4.8990 ca         1 9I6       0.011100
     40 C40         -2.5560   -11.4910    -3.7380 ca         1 9I6      -0.070000
     41 BR1         -4.9480   -10.8860    -5.0900 br         1 9I6      -0.052100
     42 CL1         -2.8920    -9.8750    -7.3840 cl         1 9I6      -0.156000
     43 O43          1.9150   -10.7770    -5.2620 o          1 9I6      -0.530000
     44 H1          -4.5940     0.0720    -1.2830 ha         1 9I6       0.135000
     45 H2          -2.4800    -0.8240    -0.3910 ha         1 9I6       0.118000
     46 H3          -2.3490    -3.7630    -3.5250 ha         1 9I6       0.133000
     47 H4          -5.2030    -3.9050    -4.5810 h1         1 9I6       0.061700
     48 H5          -1.4570    -4.9210    -1.7990 ha         1 9I6       0.133000
     49 H6           2.3620    -4.2600    -0.0080 ha         1 9I6       0.107000
     50 H7           1.8940    -1.8450     0.0910 ha         1 9I6       0.115000
     51 H8          -0.2130    -0.9450    -0.7890 ha         1 9I6       0.117000
     52 H9          -0.1020    -6.8080    -1.1760 h1         1 9I6       0.061700
     53 H10          1.3600    -6.5790    -0.2410 h1         1 9I6       0.061700
     54 H11          3.6360    -6.4040    -2.9420 h1         1 9I6       0.054700
     55 H12          3.3870    -5.8800    -1.3090 h1         1 9I6       0.054700
     56 H13          4.4830    -8.0510    -1.3450 hc         1 9I6       0.046200
     57 H14          2.9240    -8.1920    -0.5680 hc         1 9I6       0.046200
     58 H15          1.9470    -9.0490    -2.7170 hc         1 9I6       0.051700
     59 H16          3.5390    -9.0000    -3.4510 hc         1 9I6       0.051700
     60 H17          4.3780   -10.6080    -1.7110 hc         1 9I6       0.047700
     61 H18          2.7960   -10.6260    -0.9670 hc         1 9I6       0.047700
     62 H19          3.1430   -12.6230    -2.3520 h1         1 9I6       0.072200
     63 H20          3.5130   -11.6470    -3.7610 h1         1 9I6       0.072200
     64 H21          2.8990    -6.7560    -4.6170 h1         1 9I6       0.076700
     65 H22          0.8390    -4.8480    -5.7360 h1         1 9I6       0.044700
     66 H23          1.5400    -3.8650    -3.5920 hc         1 9I6       0.044033
     67 H24          3.2410    -4.1890    -3.9530 hc         1 9I6       0.044033
     68 H25          2.3300    -3.0140    -4.9030 hc         1 9I6       0.044033
     69 H26          2.7370    -4.2280    -6.9090 ho         1 9I6       0.440000
     70 H27          1.5370    -8.3670    -5.4620 hn         1 9I6       0.411500
     71 H28          0.3110    -7.3470    -5.7680 hn         1 9I6       0.411500
     72 H30          1.0450   -12.4780    -1.3650 h5         1 9I6       0.049800
     73 H31         -0.2280   -10.2370    -6.5610 ha         1 9I6       0.156000
     74 H32         -3.1930   -11.8460    -2.9400 ha         1 9I6       0.152000
     75 H29         -6.7110    -1.9480    -5.3060 hn         1 9I6       0.332500
     76 H33         -4.3070    -2.7950    -5.6190 h1         1 9I6       0.061700
@<TRIPOS>BOND
     1     1     2 ar  
     2     1     6 ar  
     3     1     7 1   
     4     2     3 ar  
     5     2     9 1   
     6     3     4 ar  
     7     3    44 1   
     8     4     5 ar  
     9     4    45 1   
    10     5     6 ar  
    11     5    11 1   
    12     6    46 1   
    13     7     8 1   
    14     7    47 1   
    15     7    76 1   
    16     8     9 1   
    17     8    75 1   
    18     9    10 2   
    19    11    12 ar  
    20    11    16 ar  
    21    12    13 ar  
    22    12    48 1   
    23    13    14 ar  
    24    13    17 1   
    25    14    15 ar  
    26    14    49 1   
    27    15    16 ar  
    28    15    50 1   
    29    16    51 1   
    30    17    18 1   
    31    17    52 1   
    32    17    53 1   
    33    18    19 1   
    34    18    24 1   
    35    19    20 1   
    36    19    54 1   
    37    19    55 1   
    38    20    21 1   
    39    20    56 1   
    40    20    57 1   
    41    21    22 1   
    42    21    58 1   
    43    21    59 1   
    44    22    23 1   
    45    22    60 1   
    46    22    61 1   
    47    23    31 1   
    48    23    62 1   
    49    23    63 1   
    50    24    25 1   
    51    24    26 2   
    52    25    27 1   
    53    25    30 1   
    54    25    64 1   
    55    27    28 1   
    56    27    29 1   
    57    27    65 1   
    58    28    66 1   
    59    28    67 1   
    60    28    68 1   
    61    29    69 1   
    62    30    70 1   
    63    30    71 1   
    64    31    32 1   
    65    31    36 1   
    66    32    33 1   
    67    32    43 2   
    68    33    34 ar  
    69    33    37 ar  
    70    34    35 1   
    71    34    40 ar  
    72    35    36 2   
    73    36    72 1   
    74    37    38 ar  
    75    37    73 1   
    76    38    39 ar  
    77    38    42 1   
    78    39    40 ar  
    79    39    41 1   
    80    40    74 1   
@<TRIPOS>SUBSTRUCTURE
     1 9I6         1 TEMP              0 ****  ****    0 ROOT
