@<TRIPOS>MOLECULE
9I8
   43    46     1     0     0
SMALL
No Charge or Current Charge


@<TRIPOS>ATOM
      1 N1          32.3840     8.0640    65.3540 nu         1 9I8      -0.900900
      2 N3          29.6600     6.9830    63.3490 na         1 9I8       0.125800
      3 C4          35.2730    12.4040    67.0380 ca         1 9I8      -0.090000
      4 C5          34.5200    11.3030    66.5950 ca         1 9I8      -0.165000
      5 C6          34.8290     9.9960    67.0200 ca         1 9I8       0.163900
      6 C7          33.0990     9.1870    65.7640 ca         1 9I8       0.373900
      7 C8          31.2920     7.8560    64.5200 cc         1 9I8       0.189000
      8 C13         35.7660    14.8900    67.0770 cp         1 9I8      -0.069000
      9 C15         37.0350    16.0460    68.8400 ca         1 9I8      -0.170500
     10 C17         36.7900    17.0860    66.6600 ca         1 9I8      -0.170500
     11 C16         37.2880    17.1170    67.9690 ca         1 9I8       0.137100
     12 C14         36.2820    14.9440    68.3980 ca         1 9I8      -0.061500
     13 C18         36.0360    15.9850    66.2170 ca         1 9I8      -0.061500
     14 C3          34.9640    13.7160    66.6070 cp         1 9I8      -0.005000
     15 C2          33.8730    13.8840    65.7200 ca         1 9I8      -0.177000
     16 C12         33.4330    11.4750    65.7090 ca         1 9I8       0.062000
     17 C1          33.1100    12.7810    65.2700 ca         1 9I8       0.146100
     18 O           32.0390    12.9400    64.4040 os         1 9I8      -0.317100
     19 C           31.6340    14.2240    63.8980 c3         1 9I8       0.142900
     20 N4          32.7270    10.3950    65.3010 nb         1 9I8      -0.210000
     21 N           34.1160     8.9330    66.6040 nb         1 9I8      -0.220000
     22 C11         30.7100     6.6670    64.2210 cd         1 9I8      -0.229000
     23 N2          29.5620     8.3430    63.0880 nd         1 9I8      -0.520800
     24 C9          30.5560     8.8360    63.8060 cc         1 9I8       0.252900
     25 H1          32.7490     7.2010    65.7610 hn         1 9I8       0.512000
     26 H2          36.1130    12.2400    67.7090 ha         1 9I8       0.117000
     27 H3          35.6550     9.7970    67.7010 h4         1 9I8       0.024100
     28 H4          28.7970     6.0940    61.6450 h1         1 9I8       0.056367
     29 H5          28.9640     5.0120    63.0590 h1         1 9I8       0.056367
     30 H6          27.6980     6.2760    63.0460 h1         1 9I8       0.056367
     31 H7          37.4140    16.0610    69.8590 ha         1 9I8       0.122000
     32 H8          36.9890    17.9140    65.9840 ha         1 9I8       0.122000
     33 H9          38.2810    18.0390    69.3220 ho         1 9I8       0.463000
     34 H10         36.0850    14.1300    69.0910 ha         1 9I8       0.115500
     35 H11         35.6700    15.9750    65.1930 ha         1 9I8       0.115500
     36 H12         33.6220    14.8900    65.3990 ha         1 9I8       0.120000
     37 H13         30.7710    14.1130    63.2300 h1         1 9I8       0.043367
     38 H14         31.3440    14.8920    64.7190 h1         1 9I8       0.043367
     39 H15         32.4460    14.6930    63.3290 h1         1 9I8       0.043367
     40 H16         30.9400     5.6580    64.5390 h4         1 9I8       0.153000
     41 H17         30.7150     9.9050    63.7870 h4         1 9I8       0.071100
     42 C10         28.7220     6.0320    62.7370 c3         1 9I8       0.076900
     43 O1          38.0170    18.1880    68.3890 oh         1 9I8      -0.536100
@<TRIPOS>BOND
     1     1     6 1   
     2     1     7 1   
     3     1    25 1   
     4     2    22 1   
     5     2    23 1   
     6     2    42 1   
     7     3     4 ar  
     8     3    14 ar  
     9     3    26 1   
    10     4     5 ar  
    11     4    16 ar  
    12     5    21 ar  
    13     5    27 1   
    14     6    20 ar  
    15     6    21 ar  
    16     7    22 2   
    17     7    24 1   
    18     8    12 ar  
    19     8    13 ar  
    20     8    14 1   
    21     9    11 ar  
    22     9    12 ar  
    23     9    31 1   
    24    10    11 ar  
    25    10    13 ar  
    26    10    32 1   
    27    11    43 1   
    28    12    34 1   
    29    13    35 1   
    30    14    15 ar  
    31    15    17 ar  
    32    15    36 1   
    33    16    17 ar  
    34    16    20 ar  
    35    17    18 1   
    36    18    19 1   
    37    19    37 1   
    38    19    38 1   
    39    19    39 1   
    40    22    40 1   
    41    23    24 2   
    42    24    41 1   
    43    28    42 1   
    44    29    42 1   
    45    30    42 1   
    46    33    43 1   
@<TRIPOS>SUBSTRUCTURE
     1 9I8         1 TEMP              0 ****  ****    0 ROOT
