@<TRIPOS>MOLECULE
9I8
   43    46     1     0     0
SMALL
abcg2


@<TRIPOS>ATOM
      1 N1          32.3770     8.0650    65.4290 nu         1 9I8      -0.900900
      2 N3          29.6990     7.0780    63.3340 na         1 9I8       0.125800
      3 C4          35.2660    12.3960    67.0990 ca         1 9I8      -0.090000
      4 C5          34.5130    11.2880    66.6650 ca         1 9I8      -0.165000
      5 C6          34.7680     9.9600    67.0930 ca         1 9I8       0.163900
      6 C7          33.0560     9.1820    65.8070 ca         1 9I8       0.373900
      7 C8          31.3080     7.9620    64.5440 cc         1 9I8       0.189000
      8 C13         35.7310    14.8460    67.0750 cp         1 9I8      -0.069000
      9 C15         37.0020    16.0290    68.7780 ca         1 9I8      -0.170500
     10 C17         36.6760    17.0410    66.6170 ca         1 9I8      -0.170500
     11 C16         37.2070    17.0950    67.9040 ca         1 9I8       0.137100
     12 C14         36.2730    14.9240    68.3630 ca         1 9I8      -0.061500
     13 C18         35.9480    15.9310    66.2160 ca         1 9I8      -0.061500
     14 C3          34.9640    13.6600    66.6390 cp         1 9I8      -0.005000
     15 C2          33.8880    13.8130    65.7230 ca         1 9I8      -0.177000
     16 C12         33.4420    11.4300    65.7520 ca         1 9I8       0.062000
     17 C1          33.1410    12.7430    65.2810 ca         1 9I8       0.146100
     18 O           32.1030    12.8350    64.4150 os         1 9I8      -0.317100
     19 C           31.7640    14.1230    63.9040 c3         1 9I8       0.142900
     20 N4          32.7170    10.3640    65.3310 nb         1 9I8      -0.210000
     21 N           34.0760     8.9290    66.6910 nb         1 9I8      -0.220000
     22 C11         30.6750     6.7710    64.2190 cd         1 9I8      -0.229000
     23 N2          29.6540     8.3910    63.0650 nd         1 9I8      -0.520800
     24 C9          30.6290     8.9460    63.7930 cc         1 9I8       0.252900
     25 H1          32.7120     7.2090    65.8440 hn         1 9I8       0.512000
     26 H2          36.0920    12.2310    67.7790 ha         1 9I8       0.117000
     27 H3          35.5780     9.7740    67.7940 h4         1 9I8       0.024100
     28 H4          28.1510     6.7260    62.0200 h1         1 9I8       0.056367
     29 H5          29.3010     5.3800    62.1750 h1         1 9I8       0.056367
     30 H6          28.1250     5.6990    63.4710 h1         1 9I8       0.056367
     31 H7          37.4060    16.0730    69.7830 ha         1 9I8       0.122000
     32 H8          36.8430    17.8680    65.9380 ha         1 9I8       0.122000
     33 H9          38.2350    18.1200    69.1640 ho         1 9I8       0.463000
     34 H10         36.1080    14.1160    69.0640 ha         1 9I8       0.115500
     35 H11         35.5610    15.9030    65.2060 ha         1 9I8       0.115500
     36 H12         33.6420    14.8070    65.3830 ha         1 9I8       0.120000
     37 H13         30.9310    13.9630    63.2240 h1         1 9I8       0.043367
     38 H14         31.4590    14.7970    64.7080 h1         1 9I8       0.043367
     39 H15         32.6050    14.5620    63.3610 h1         1 9I8       0.043367
     40 H16         30.8540     5.7610    64.5500 h4         1 9I8       0.153000
     41 H17         30.8130    10.0040    63.7560 h4         1 9I8       0.071100
     42 C10         28.7630     6.1590    62.7150 c3         1 9I8       0.076900
     43 O1          37.9120    18.2090    68.2570 oh         1 9I8      -0.536100
@<TRIPOS>BOND
     1     1     6 1   
     2     1     7 1   
     3     1    25 1   
     4     2    22 1   
     5     2    23 1   
     6     2    42 1   
     7     3     4 ar  
     8     3    14 ar  
     9     3    26 1   
    10     4     5 ar  
    11     4    16 ar  
    12     5    21 ar  
    13     5    27 1   
    14     6    20 ar  
    15     6    21 ar  
    16     7    22 2   
    17     7    24 1   
    18     8    12 ar  
    19     8    13 ar  
    20     8    14 1   
    21     9    11 ar  
    22     9    12 ar  
    23     9    31 1   
    24    10    11 ar  
    25    10    13 ar  
    26    10    32 1   
    27    11    43 1   
    28    12    34 1   
    29    13    35 1   
    30    14    15 ar  
    31    15    17 ar  
    32    15    36 1   
    33    16    17 ar  
    34    16    20 ar  
    35    17    18 1   
    36    18    19 1   
    37    19    37 1   
    38    19    38 1   
    39    19    39 1   
    40    22    40 1   
    41    23    24 2   
    42    24    41 1   
    43    28    42 1   
    44    29    42 1   
    45    30    42 1   
    46    33    43 1   
@<TRIPOS>SUBSTRUCTURE
     1 9I8         1 TEMP              0 ****  ****    0 ROOT
