@<TRIPOS>MOLECULE
9I9
   72    75     1     0     0
SMALL
No Charge or Current Charge


@<TRIPOS>ATOM
      1 F2          -7.1880     3.6630     4.0820 f          1 9I9      -0.114000
      2 C24         -6.6310     2.5970     3.4620 c3         1 9I9       0.357300
      3 F           -7.4420     2.2880     2.4250 f          1 9I9      -0.114000
      4 F1          -6.6860     1.5620     4.3290 f          1 9I9      -0.114000
      5 C23         -5.1900     2.8720     3.0140 ca         1 9I9      -0.197300
      6 C22         -4.3670     3.7510     3.7480 ca         1 9I9      -0.060000
      7 C21         -3.0440     3.9950     3.3420 ca         1 9I9      -0.108500
      8 C25         -4.6550     2.2300     1.8770 ca         1 9I9      -0.060000
      9 C26         -3.3310     2.4770     1.4750 ca         1 9I9      -0.108500
     10 C20         -2.4990     3.3670     2.1960 cp         1 9I9      -0.002000
     11 C19         -1.0900     3.6350     1.7650 cp         1 9I9      -0.042000
     12 C18         -0.5210     4.9240     1.9130 ca         1 9I9      -0.080000
     13 C27         -0.2820     2.6160     1.2060 ca         1 9I9      -0.091000
     14 C28          1.0450     2.8740     0.8230 ca         1 9I9      -0.110000
     15 C29          1.5900     4.1580     0.9860 ca         1 9I9      -0.097000
     16 C17          0.8050     5.1960     1.5260 ca         1 9I9      -0.102300
     17 C12          1.3700     6.5970     1.7400 c3         1 9I9       0.136000
     18 N3           2.1830     6.6260     2.9590 ns         1 9I9      -0.512900
     19 C13          1.6670     6.7070     4.2350 c          1 9I9       0.595100
     20 O3           0.4730     6.8670     4.4460 o          1 9I9      -0.559100
     21 C14          2.7170     6.5970     5.3890 c3         1 9I9       0.056500
     22 N4           2.7860     7.7730     6.3430 n8         1 9I9      -0.984200
     23 C15          2.5000     5.2790     6.1810 c3         1 9I9       0.182300
     24 C16          2.9180     4.0080     5.4140 c3         1 9I9      -0.099100
     25 O2           3.2690     5.4130     7.3720 oh         1 9I9      -0.669000
     26 C11          2.1560     7.1400     0.5230 c3         1 9I9       0.094000
     27 N2           2.3910     8.5850     0.6470 ns         1 9I9      -0.500900
     28 C            1.9740     9.5310    -0.2620 c          1 9I9       0.600100
     29 O            1.5360     9.2400    -1.3640 o          1 9I9      -0.611100
     30 C1           2.0800    10.9720     0.2230 c3         1 9I9      -0.182400
     31 C2           0.6840    11.5630     0.5270 c3         1 9I9       0.108000
     32 N           -0.1490    10.6870     1.3900 n          1 9I9      -0.340300
     33 C10         -0.0600    10.8030     2.7730 c          1 9I9       0.571600
     34 O1           0.6900    11.6000     3.3210 o          1 9I9      -0.544000
     35 C9          -0.9220     9.8750     3.5420 ca         1 9I9      -0.215600
     36 C4          -1.7510     8.9860     2.8390 ca         1 9I9       0.205400
     37 N1          -1.8340     8.9270     1.4450 nc         1 9I9      -0.603100
     38 C3          -1.0360     9.7920     0.8100 cd         1 9I9       0.514800
     39 C8          -0.9010     9.8720     4.9550 ca         1 9I9      -0.041000
     40 C7          -1.7060     8.9740     5.6720 ca         1 9I9       0.086000
     41 Cl1         -1.6460     8.9820     7.4350 cl         1 9I9      -0.171000
     42 C6          -2.5390     8.0800     4.9730 ca         1 9I9       0.159000
     43 Cl          -3.5680     6.9330     5.8330 cl         1 9I9      -0.161000
     44 C5          -2.5590     8.0960     3.5700 ca         1 9I9      -0.072000
     45 H1          -4.7460     4.2450     4.6410 ha         1 9I9       0.131000
     46 H2          -2.4300     4.6680     3.9350 ha         1 9I9       0.124500
     47 H3          -5.2620     1.5370     1.2980 ha         1 9I9       0.131000
     48 H4          -2.9510     1.9800     0.5860 ha         1 9I9       0.124500
     49 H5          -1.1240     5.7260     2.3310 ha         1 9I9       0.125000
     50 H6          -0.6790     1.6100     1.0860 ha         1 9I9       0.118000
     51 H7           1.6540     2.0750     0.4060 ha         1 9I9       0.117000
     52 H8           2.6240     4.3370     0.6990 ha         1 9I9       0.109000
     53 H9           0.5190     7.2780     1.8860 h1         1 9I9       0.108700
     54 H10          3.1840     6.4930     2.8760 hn         1 9I9       0.305500
     55 H11          3.7080     6.5340     4.9190 h1         1 9I9       0.024700
     56 H12          3.0730     8.6160     5.8280 hn         1 9I9       0.402000
     57 H13          1.8320     8.0090     6.6520 hn         1 9I9       0.402000
     58 H15          1.4330     5.1980     6.4380 h1         1 9I9       0.067700
     59 H16          2.7630     3.1170     6.0340 hc         1 9I9       0.045700
     60 H17          2.3220     3.8920     4.5010 hc         1 9I9       0.045700
     61 H18          3.9770     4.0510     5.1300 hc         1 9I9       0.045700
     62 H19          3.3770     6.4000     7.4040 ho         1 9I9       0.452000
     63 H20          1.5800     6.9360    -0.3890 h1         1 9I9       0.062200
     64 H21          3.1220     6.6270     0.4340 h1         1 9I9       0.062200
     65 H22          2.7630     8.9330     1.5230 hn         1 9I9       0.318500
     66 H23          2.6850    11.0210     1.1360 hc         1 9I9       0.077200
     67 H24          2.5480    11.5790    -0.5590 hc         1 9I9       0.077200
     68 H25          0.7970    12.5510     0.9930 h1         1 9I9       0.075200
     69 H26          0.1560    11.7250    -0.4230 h1         1 9I9       0.075200
     70 H27         -1.0600     9.7970    -0.2740 h5         1 9I9       0.067800
     71 H28         -0.2570    10.5570     5.5010 ha         1 9I9       0.148000
     72 H29         -3.2070     7.4050     3.0400 ha         1 9I9       0.157000
@<TRIPOS>BOND
     1     1     2 1   
     2     2     3 1   
     3     2     4 1   
     4     2     5 1   
     5     5     6 ar  
     6     5     8 ar  
     7     6     7 ar  
     8     6    45 1   
     9     7    10 ar  
    10     7    46 1   
    11     8     9 ar  
    12     8    47 1   
    13     9    10 ar  
    14     9    48 1   
    15    10    11 1   
    16    11    12 ar  
    17    11    13 ar  
    18    12    16 ar  
    19    12    49 1   
    20    13    14 ar  
    21    13    50 1   
    22    14    15 ar  
    23    14    51 1   
    24    15    16 ar  
    25    15    52 1   
    26    16    17 1   
    27    17    18 1   
    28    17    26 1   
    29    17    53 1   
    30    18    19 1   
    31    18    54 1   
    32    19    20 2   
    33    19    21 1   
    34    21    22 1   
    35    21    23 1   
    36    21    55 1   
    37    22    56 1   
    38    22    57 1   
    39    23    24 1   
    40    23    25 1   
    41    23    58 1   
    42    24    59 1   
    43    24    60 1   
    44    24    61 1   
    45    25    62 1   
    46    26    27 1   
    47    26    63 1   
    48    26    64 1   
    49    27    28 1   
    50    27    65 1   
    51    28    29 2   
    52    28    30 1   
    53    30    31 1   
    54    30    66 1   
    55    30    67 1   
    56    31    32 1   
    57    31    68 1   
    58    31    69 1   
    59    32    33 1   
    60    32    38 1   
    61    33    34 2   
    62    33    35 1   
    63    35    36 ar  
    64    35    39 ar  
    65    36    37 1   
    66    36    44 ar  
    67    37    38 2   
    68    38    70 1   
    69    39    40 ar  
    70    39    71 1   
    71    40    41 1   
    72    40    42 ar  
    73    42    43 1   
    74    42    44 ar  
    75    44    72 1   
@<TRIPOS>SUBSTRUCTURE
     1 9I9         1 TEMP              0 ****  ****    0 ROOT
