@<TRIPOS>MOLECULE
9I9
   72    75     1     0     0
SMALL
bcc


@<TRIPOS>ATOM
      1 F2          -7.4100     1.9830    -0.7980 f          1 9I9      -0.235300
      2 C24         -6.6300     0.9970    -0.3370 c3         1 9I9       0.721200
      3 F           -6.5560     0.0730    -1.2990 f          1 9I9      -0.235300
      4 F1          -7.2910     0.4370     0.6900 f          1 9I9      -0.235300
      5 C23         -5.2860     1.4930     0.0870 ca         1 9I9      -0.197300
      6 C22         -5.1940     2.6410     0.8670 ca         1 9I9      -0.078000
      7 C21         -3.9590     3.0790     1.3140 ca         1 9I9      -0.126500
      8 C25         -4.1330     0.7960    -0.2480 ca         1 9I9      -0.078000
      9 C26         -2.9020     1.2420     0.2010 ca         1 9I9      -0.126500
     10 C20         -2.7920     2.3830     0.9940 cp         1 9I9      -0.002000
     11 C19         -1.4700     2.8260     1.4800 cp         1 9I9      -0.042000
     12 C18         -1.1560     4.1810     1.5860 ca         1 9I9      -0.098000
     13 C27         -0.5040     1.8860     1.8410 ca         1 9I9      -0.109000
     14 C28          0.7440     2.2970     2.2790 ca         1 9I9      -0.128000
     15 C29          1.0480     3.6480     2.3610 ca         1 9I9      -0.115000
     16 C17          0.0950     4.6020     2.0230 ca         1 9I9      -0.102300
     17 C12          0.4110     6.0830     2.0520 c3         1 9I9       0.136000
     18 N3           1.4420     6.4200     3.0020 ns         1 9I9      -0.579900
     19 C13          1.1940     6.7470     4.2840 c          1 9I9       0.662100
     20 O3           0.0670     6.8580     4.7390 o          1 9I9      -0.559100
     21 C14          2.4380     6.9580     5.1390 c3         1 9I9       0.056500
     22 N4           2.3780     8.2840     5.7310 n8         1 9I9      -0.873800
     23 C15          2.4720     5.8970     6.2530 c3         1 9I9       0.159100
     24 C16          2.5440     4.4870     5.6970 c3         1 9I9      -0.099100
     25 O2           3.6050     6.0980     7.0760 oh         1 9I9      -0.606800
     26 C11          0.8270     6.5380     0.6450 c3         1 9I9       0.094000
     27 N2           1.0940     7.9510     0.5510 ns         1 9I9      -0.567900
     28 C            0.1210     8.8740     0.5030 c          1 9I9       0.667100
     29 O           -1.0670     8.5900     0.5760 o          1 9I9      -0.611100
     30 C1           0.5920    10.3020     0.3160 c3         1 9I9      -0.182400
     31 C2          -0.2700    11.3020     1.0680 c3         1 9I9       0.108000
     32 N           -0.2100    11.1230     2.5170 n          1 9I9      -0.407300
     33 C10          0.9050    11.5830     3.1980 c          1 9I9       0.714100
     34 O1           1.8210    12.1380     2.6220 o          1 9I9      -0.619500
     35 C9           0.8590    11.3430     4.6360 ca         1 9I9      -0.215600
     36 C4          -0.2530    10.6990     5.1920 ca         1 9I9       0.205400
     37 N1          -1.3130    10.2890     4.4250 nc         1 9I9      -0.603100
     38 C3          -1.2430    10.5120     3.1650 cd         1 9I9       0.514800
     39 C8           1.9210    11.7460     5.4450 ca         1 9I9      -0.059000
     40 C7           1.8810    11.5070     6.7980 ca         1 9I9      -0.005600
     41 CL1          3.2060    11.9790     7.7880 cl         1 9I9      -0.079400
     42 C6           0.7650    10.8700     7.3620 ca         1 9I9       0.067400
     43 CL           0.7090    10.5690     9.0510 cl         1 9I9      -0.069400
     44 C5          -0.2880    10.4740     6.5720 ca         1 9I9      -0.090000
     45 H1          -6.0790     3.2000     1.1440 ha         1 9I9       0.149000
     46 H2          -3.9120     3.9620     1.9380 ha         1 9I9       0.142500
     47 H3          -4.1750    -0.0930    -0.8620 ha         1 9I9       0.149000
     48 H4          -2.0140     0.6960    -0.0910 ha         1 9I9       0.142500
     49 H5          -1.8900     4.9280     1.3020 ha         1 9I9       0.143000
     50 H6          -0.7320     0.8290     1.8010 ha         1 9I9       0.136000
     51 H7           1.4840     1.5600     2.5610 ha         1 9I9       0.135000
     52 H8           2.0310     3.9510     2.6990 ha         1 9I9       0.127000
     53 H9          -0.4920     6.6260     2.3340 h1         1 9I9       0.108700
     54 H10          2.4040     6.3380     2.7100 hn         1 9I9       0.305500
     55 H11          3.3340     6.8080     4.5170 h1         1 9I9       0.024700
     56 H12          3.2550     8.4810     6.1970 hn         1 9I9       0.346800
     57 H13          2.3020     8.9850     5.0050 hn         1 9I9       0.346800
     58 H15          1.5520     6.0020     6.8400 h1         1 9I9       0.067700
     59 H16          2.6480     3.7650     6.5060 hc         1 9I9       0.045700
     60 H17          1.6370     4.2300     5.1490 hc         1 9I9       0.045700
     61 H18          3.3910     4.3650     5.0180 hc         1 9I9       0.045700
     62 H19          3.3950     6.7650     7.7360 ho         1 9I9       0.413000
     63 H20          0.0410     6.2590    -0.0580 h1         1 9I9       0.062200
     64 H21          1.7300     6.0060     0.3410 h1         1 9I9       0.062200
     65 H22          2.0540     8.2540     0.5310 hn         1 9I9       0.318500
     66 H23          1.6430    10.4170     0.5800 hc         1 9I9       0.077200
     67 H24          0.5160    10.5360    -0.7500 hc         1 9I9       0.077200
     68 H25          0.0450    12.3160     0.8310 h1         1 9I9       0.075200
     69 H26         -1.3110    11.2100     0.7670 h1         1 9I9       0.075200
     70 H27         -2.0640    10.2060     2.5300 h5         1 9I9       0.067800
     71 H28          2.7800    12.2370     5.0060 ha         1 9I9       0.166000
     72 H29         -1.1480     9.9800     7.0040 ha         1 9I9       0.175000
@<TRIPOS>BOND
     1     1     2 1   
     2     2     3 1   
     3     2     4 1   
     4     2     5 1   
     5     5     6 ar  
     6     5     8 ar  
     7     6     7 ar  
     8     6    45 1   
     9     7    10 ar  
    10     7    46 1   
    11     8     9 ar  
    12     8    47 1   
    13     9    10 ar  
    14     9    48 1   
    15    10    11 1   
    16    11    12 ar  
    17    11    13 ar  
    18    12    16 ar  
    19    12    49 1   
    20    13    14 ar  
    21    13    50 1   
    22    14    15 ar  
    23    14    51 1   
    24    15    16 ar  
    25    15    52 1   
    26    16    17 1   
    27    17    18 1   
    28    17    26 1   
    29    17    53 1   
    30    18    19 1   
    31    18    54 1   
    32    19    20 2   
    33    19    21 1   
    34    21    22 1   
    35    21    23 1   
    36    21    55 1   
    37    22    56 1   
    38    22    57 1   
    39    23    24 1   
    40    23    25 1   
    41    23    58 1   
    42    24    59 1   
    43    24    60 1   
    44    24    61 1   
    45    25    62 1   
    46    26    27 1   
    47    26    63 1   
    48    26    64 1   
    49    27    28 1   
    50    27    65 1   
    51    28    29 2   
    52    28    30 1   
    53    30    31 1   
    54    30    66 1   
    55    30    67 1   
    56    31    32 1   
    57    31    68 1   
    58    31    69 1   
    59    32    33 1   
    60    32    38 1   
    61    33    34 2   
    62    33    35 1   
    63    35    36 ar  
    64    35    39 ar  
    65    36    37 1   
    66    36    44 ar  
    67    37    38 2   
    68    38    70 1   
    69    39    40 ar  
    70    39    71 1   
    71    40    41 1   
    72    40    42 ar  
    73    42    43 1   
    74    42    44 ar  
    75    44    72 1   
@<TRIPOS>SUBSTRUCTURE
     1 9I9         1 TEMP              0 ****  ****    0 ROOT
