@<TRIPOS>MOLECULE
9IB
   76    79     1     0     0
SMALL
No Charge or Current Charge


@<TRIPOS>ATOM
      1 C1         -19.6800    25.1520   -28.5240 c3         1 9IB       0.092300
      2 C3         -18.6630    25.4320   -26.2420 c3         1 9IB       0.092300
      3 O5         -22.1150    25.6420   -27.2940 o          1 9IB      -0.594100
      4 C8         -22.9260    25.3250   -24.6330 c3         1 9IB       0.052600
      5 C10        -23.7200    23.1540   -22.9820 c3         1 9IB       0.112900
      6 C11        -24.3840    22.6130   -21.7040 ca         1 9IB      -0.011300
      7 C12        -23.6380    22.3710   -20.5050 ca         1 9IB      -0.131600
      8 C13        -24.3090    21.8720   -19.3650 ca         1 9IB      -0.082000
      9 C14        -25.6780    21.5920   -19.3930 ca         1 9IB      -0.127000
     10 C15        -26.4090    21.8240   -20.5600 ca         1 9IB      -0.072000
     11 C16        -25.7910    22.3450   -21.7180 cp         1 9IB       0.003000
     12 C19        -27.6540    24.1280   -24.5370 ca         1 9IB      -0.149000
     13 C20        -28.3120    23.0540   -25.1600 ca         1 9IB      -0.075000
     14 C21        -28.1630    21.7360   -24.6700 ca         1 9IB      -0.141600
     15 C22        -27.3330    21.5250   -23.5430 ca         1 9IB      -0.072000
     16 O28        -21.3940    22.3710   -21.4500 os         1 9IB      -0.451100
     17 C30        -19.4390    22.7090   -22.8090 c3         1 9IB       0.024700
     18 C33        -19.2710    21.2450   -24.8680 c          1 9IB       0.593100
     19 C35        -20.1100    20.1340   -25.5740 c5         1 9IB       0.030700
     20 N2         -19.8790    25.2240   -27.0600 n          1 9IB      -0.403800
     21 C4         -21.1780    25.4350   -26.5300 c          1 9IB       0.592100
     22 C6         -21.4140    25.3010   -24.9870 c3         1 9IB       0.043700
     23 S9         -23.2720    24.9510   -22.8420 ss         1 9IB      -0.435000
     24 C17        -26.6540    22.5950   -22.9120 cp         1 9IB      -0.114000
     25 C18        -26.8370    23.9010   -23.4200 ca         1 9IB      -0.116000
     26 O24        -29.5840    20.8000   -26.3120 o          1 9IB      -0.718500
     27 O25        -28.7290    19.4490   -24.8780 o          1 9IB      -0.718500
     28 C26        -22.1520    22.6330   -20.3410 c          1 9IB       0.622700
     29 O27        -21.6720    23.0150   -19.2810 o          1 9IB      -0.497000
     30 C29        -19.9630    22.5400   -21.3690 c3         1 9IB       0.159600
     31 N32        -19.8750    21.5870   -23.6770 ns         1 9IB      -0.503900
     32 O34        -18.2560    21.7940   -25.2740 o          1 9IB      -0.600100
     33 C37        -19.2410    18.8750   -25.8750 c5         1 9IB      -0.079400
     34 C38        -18.6900    19.1690   -27.2950 c5         1 9IB      -0.094400
     35 C39        -19.9280    19.7590   -28.0180 c5         1 9IB       0.112000
     36 N40        -20.5620    20.5320   -26.9310 n          1 9IB      -0.405800
     37 C41        -21.5310    21.5350   -27.1200 c          1 9IB       0.616100
     38 O42        -21.9980    22.1290   -26.1570 o          1 9IB      -0.617100
     39 C43        -21.9800    21.8710   -28.5400 c3         1 9IB      -0.171100
     40 C44        -19.8870    24.0950   -23.3510 c          1 9IB       0.600100
     41 O45        -19.4810    25.1390   -22.8560 o          1 9IB      -0.610100
     42 N46        -20.7440    24.0990   -24.4360 ns         1 9IB      -0.486900
     43 H1         -18.7070    24.6980   -28.7520 h1         1 9IB       0.039700
     44 H2         -20.4660    24.5390   -28.9830 h1         1 9IB       0.039700
     45 H3         -19.7150    26.1620   -28.9520 h1         1 9IB       0.039700
     46 H4         -18.8450    26.1870   -25.4680 h1         1 9IB       0.039700
     47 H5         -18.3660    24.4880   -25.7710 h1         1 9IB       0.039700
     48 H6         -17.8360    25.7830   -26.8740 h1         1 9IB       0.039700
     49 H7         -23.3320    26.3170   -24.8710 h1         1 9IB       0.090700
     50 H8         -23.4590    24.5940   -25.2560 h1         1 9IB       0.090700
     51 H9         -24.3950    23.0380   -23.8370 h1         1 9IB       0.080700
     52 H10        -22.8380    22.5630   -23.2490 h1         1 9IB       0.080700
     53 H11        -23.7570    21.6860   -18.4460 ha         1 9IB       0.121000
     54 H12        -26.1740    21.2000   -18.5080 ha         1 9IB       0.112000
     55 H13        -27.4770    21.6160   -20.5710 ha         1 9IB       0.130000
     56 H15        -28.9430    23.2520   -26.0240 ha         1 9IB       0.129000
     57 H16        -27.2010    20.5200   -23.1490 ha         1 9IB       0.128000
     58 H17        -18.3420    22.7260   -22.7800 h1         1 9IB       0.098700
     59 H18        -20.9640    19.8660   -24.9380 h1         1 9IB       0.082700
     60 H19        -20.9580    26.1920   -24.5380 h1         1 9IB       0.092700
     61 H20        -26.3400    24.7420   -22.9410 ha         1 9IB       0.104000
     62 H22        -19.4960    21.6660   -20.8950 h1         1 9IB       0.070200
     63 H23        -19.6920    23.4310   -20.7870 h1         1 9IB       0.070200
     64 H24        -20.7080    21.0720   -23.4080 hn         1 9IB       0.336500
     65 H25        -19.8630    17.9720   -25.8840 hc         1 9IB       0.059700
     66 H26        -18.4500    18.7120   -25.1330 hc         1 9IB       0.059700
     67 H27        -18.3040    18.2730   -27.7940 hc         1 9IB       0.061200
     68 H28        -17.8720    19.8980   -27.2610 hc         1 9IB       0.061200
     69 H29        -20.6030    18.9690   -28.3740 h1         1 9IB       0.046200
     70 H30        -19.6340    20.3840   -28.8720 h1         1 9IB       0.046200
     71 H31        -22.7510    22.6490   -28.5610 hc         1 9IB       0.063033
     72 H32        -21.1060    22.1610   -29.1320 hc         1 9IB       0.063033
     73 H33        -22.3140    20.9540   -29.0380 hc         1 9IB       0.063033
     74 H34        -21.0200    23.1920   -24.8070 hn         1 9IB       0.347500
     75 C23        -28.8800    20.5730   -25.3380 c          1 9IB       0.715600
     76 H14        -27.7820    25.1380   -24.9190 ha         1 9IB       0.092000
@<TRIPOS>BOND
     1     1    20 1   
     2     1    43 1   
     3     1    44 1   
     4     1    45 1   
     5     2    20 1   
     6     2    46 1   
     7     2    47 1   
     8     2    48 1   
     9     3    21 2   
    10     4    22 1   
    11     4    23 1   
    12     4    49 1   
    13     4    50 1   
    14     5     6 1   
    15     5    23 1   
    16     5    51 1   
    17     5    52 1   
    18     6     7 ar  
    19     6    11 ar  
    20     7     8 ar  
    21     7    28 1   
    22     8     9 ar  
    23     8    53 1   
    24     9    10 ar  
    25     9    54 1   
    26    10    11 ar  
    27    10    55 1   
    28    11    24 1   
    29    12    13 ar  
    30    12    25 ar  
    31    12    76 1   
    32    13    14 ar  
    33    13    56 1   
    34    14    15 ar  
    35    14    75 1   
    36    15    24 ar  
    37    15    57 1   
    38    16    28 1   
    39    16    30 1   
    40    17    30 1   
    41    17    31 1   
    42    17    40 1   
    43    17    58 1   
    44    18    19 1   
    45    18    31 1   
    46    18    32 2   
    47    19    33 1   
    48    19    36 1   
    49    19    59 1   
    50    20    21 1   
    51    21    22 1   
    52    22    42 1   
    53    22    60 1   
    54    24    25 ar  
    55    25    61 1   
    56    26    75 1   
    57    27    75 1   
    58    28    29 2   
    59    30    62 1   
    60    30    63 1   
    61    31    64 1   
    62    33    34 1   
    63    33    65 1   
    64    33    66 1   
    65    34    35 1   
    66    34    67 1   
    67    34    68 1   
    68    35    36 1   
    69    35    69 1   
    70    35    70 1   
    71    36    37 1   
    72    37    38 2   
    73    37    39 1   
    74    39    71 1   
    75    39    72 1   
    76    39    73 1   
    77    40    41 2   
    78    40    42 1   
    79    42    74 1   
@<TRIPOS>SUBSTRUCTURE
     1 9IB         1 TEMP              0 ****  ****    0 ROOT
