@<TRIPOS>MOLECULE
9IB
   76    79     1     0     0
SMALL
abcg2


@<TRIPOS>ATOM
      1 C1         -20.0760    25.5640   -28.4230 c3         1 9IB       0.092300
      2 C3         -19.0180    25.5420   -26.1820 c3         1 9IB       0.092300
      3 O5         -22.4530    25.4360   -27.2340 o          1 9IB      -0.594100
      4 C8         -23.1420    25.2370   -24.6190 c3         1 9IB       0.052600
      5 C10        -23.8960    23.0990   -22.9770 c3         1 9IB       0.112900
      6 C11        -24.4480    22.6370   -21.6580 ca         1 9IB      -0.011300
      7 C12        -23.6450    22.3660   -20.5340 ca         1 9IB      -0.131600
      8 C13        -24.2300    21.9500   -19.3380 ca         1 9IB      -0.082000
      9 C14        -25.5960    21.7710   -19.2400 ca         1 9IB      -0.127000
     10 C15        -26.3940    22.0500   -20.3350 ca         1 9IB      -0.072000
     11 C16        -25.8400    22.5020   -21.5290 cp         1 9IB       0.003000
     12 C19        -27.9110    24.4040   -24.0470 ca         1 9IB      -0.149000
     13 C20        -28.5950    23.3700   -24.6720 ca         1 9IB      -0.075000
     14 C21        -28.3810    22.0470   -24.2940 ca         1 9IB      -0.141600
     15 C22        -27.4680    21.7880   -23.2760 ca         1 9IB      -0.072000
     16 O28        -21.5340    22.2290   -21.6060 os         1 9IB      -0.451100
     17 C30        -19.7000    22.5560   -23.0730 c3         1 9IB       0.024700
     18 C33        -19.4440    21.1770   -25.0760 c          1 9IB       0.593100
     19 C35        -20.0600    20.0320   -25.8710 c5         1 9IB       0.030700
     20 N2         -20.2280    25.5260   -26.9790 n          1 9IB      -0.403800
     21 C4         -21.4770    25.4040   -26.4970 c          1 9IB       0.592100
     22 C6         -21.6550    25.2190   -24.9810 c3         1 9IB       0.043700
     23 S9         -23.4640    24.8680   -22.8700 ss         1 9IB      -0.435000
     24 C17        -26.7730    22.8140   -22.6430 cp         1 9IB      -0.114000
     25 C18        -27.0030    24.1310   -23.0350 ca         1 9IB      -0.116000
     26 O24        -29.9550    21.2310   -25.8520 o          1 9IB      -0.718500
     27 O25        -28.8510    19.7520   -24.5970 o          1 9IB      -0.718500
     28 C26        -22.1580    22.4900   -20.4660 c          1 9IB       0.622700
     29 O27        -21.5740    22.7540   -19.4450 o          1 9IB      -0.497000
     30 C29        -20.1050    22.2850   -21.6370 c3         1 9IB       0.159600
     31 N32        -20.1090    21.4890   -23.9450 ns         1 9IB      -0.503900
     32 O34        -18.4210    21.7380   -25.4260 o          1 9IB      -0.600100
     33 C37        -19.2290    18.7460   -25.7560 c5         1 9IB      -0.079400
     34 C38        -18.2840    18.8100   -26.9520 c5         1 9IB      -0.094400
     35 C39        -19.1380    19.4500   -28.0380 c5         1 9IB       0.112000
     36 N40        -20.0230    20.3340   -27.2880 n          1 9IB      -0.405800
     37 C41        -20.7140    21.3790   -27.7710 c          1 9IB       0.616100
     38 O42        -21.3740    22.1010   -27.0260 o          1 9IB      -0.617100
     39 C43        -20.6320    21.6220   -29.2540 c3         1 9IB      -0.171100
     40 C44        -20.2120    23.9450   -23.4740 c          1 9IB       0.600100
     41 O45        -19.8710    24.9140   -22.8160 o          1 9IB      -0.610100
     42 N46        -21.0150    24.0020   -24.5470 ns         1 9IB      -0.486900
     43 H1         -19.0180    25.6120   -28.6650 h1         1 9IB       0.039700
     44 H2         -20.4900    24.6720   -28.8930 h1         1 9IB       0.039700
     45 H3         -20.5660    26.4360   -28.8580 h1         1 9IB       0.039700
     46 H4         -19.1940    25.9380   -25.1860 h1         1 9IB       0.039700
     47 H5         -18.5730    24.5500   -26.0880 h1         1 9IB       0.039700
     48 H6         -18.2920    26.1990   -26.6570 h1         1 9IB       0.039700
     49 H7         -23.5520    26.2270   -24.8180 h1         1 9IB       0.090700
     50 H8         -23.7060    24.5270   -25.2230 h1         1 9IB       0.090700
     51 H9         -24.6530    22.9870   -23.7520 h1         1 9IB       0.080700
     52 H10        -23.0290    22.5240   -23.2820 h1         1 9IB       0.080700
     53 H11        -23.6040    21.7470   -18.4790 ha         1 9IB       0.121000
     54 H12        -26.0360    21.4260   -18.3140 ha         1 9IB       0.112000
     55 H13        -27.4680    21.9320   -20.2650 ha         1 9IB       0.130000
     56 H15        -29.3040    23.5900   -25.4590 ha         1 9IB       0.129000
     57 H16        -27.2920    20.7620   -22.9750 ha         1 9IB       0.128000
     58 H17        -18.6080    22.6160   -23.0850 h1         1 9IB       0.098700
     59 H18        -21.0890    19.8630   -25.5430 h1         1 9IB       0.082700
     60 H19        -21.1720    26.0470   -24.4590 h1         1 9IB       0.092700
     61 H20        -26.4710    24.9400   -22.5490 ha         1 9IB       0.104000
     62 H22        -19.6980    21.3310   -21.2980 h1         1 9IB       0.070200
     63 H23        -19.7240    23.0760   -20.9940 h1         1 9IB       0.070200
     64 H24        -20.9770    21.0130   -23.7490 hn         1 9IB       0.336500
     65 H25        -19.8960    17.8870   -25.8430 hc         1 9IB       0.059700
     66 H26        -18.7140    18.6640   -24.7990 hc         1 9IB       0.059700
     67 H27        -17.9150    17.8290   -27.2480 hc         1 9IB       0.061200
     68 H28        -17.4230    19.4400   -26.7280 hc         1 9IB       0.061200
     69 H29        -19.7160    18.6980   -28.5830 h1         1 9IB       0.046200
     70 H30        -18.5420    20.0050   -28.7620 h1         1 9IB       0.046200
     71 H31        -21.3760    22.3580   -29.5460 hc         1 9IB       0.063033
     72 H32        -19.6450    22.0070   -29.5200 hc         1 9IB       0.063033
     73 H33        -20.7900    20.7090   -29.8270 hc         1 9IB       0.063033
     74 H34        -21.2350    23.1540   -25.0540 hn         1 9IB       0.347500
     75 C23        -29.1310    20.9040   -24.9770 c          1 9IB       0.715600
     76 H14        -28.0880    25.4300   -24.3460 ha         1 9IB       0.092000
@<TRIPOS>BOND
     1     1    20 1   
     2     1    43 1   
     3     1    44 1   
     4     1    45 1   
     5     2    20 1   
     6     2    46 1   
     7     2    47 1   
     8     2    48 1   
     9     3    21 2   
    10     4    22 1   
    11     4    23 1   
    12     4    49 1   
    13     4    50 1   
    14     5     6 1   
    15     5    23 1   
    16     5    51 1   
    17     5    52 1   
    18     6     7 ar  
    19     6    11 ar  
    20     7     8 ar  
    21     7    28 1   
    22     8     9 ar  
    23     8    53 1   
    24     9    10 ar  
    25     9    54 1   
    26    10    11 ar  
    27    10    55 1   
    28    11    24 1   
    29    12    13 ar  
    30    12    25 ar  
    31    12    76 1   
    32    13    14 ar  
    33    13    56 1   
    34    14    15 ar  
    35    14    75 1   
    36    15    24 ar  
    37    15    57 1   
    38    16    28 1   
    39    16    30 1   
    40    17    30 1   
    41    17    31 1   
    42    17    40 1   
    43    17    58 1   
    44    18    19 1   
    45    18    31 1   
    46    18    32 2   
    47    19    33 1   
    48    19    36 1   
    49    19    59 1   
    50    20    21 1   
    51    21    22 1   
    52    22    42 1   
    53    22    60 1   
    54    24    25 ar  
    55    25    61 1   
    56    26    75 1   
    57    27    75 1   
    58    28    29 2   
    59    30    62 1   
    60    30    63 1   
    61    31    64 1   
    62    33    34 1   
    63    33    65 1   
    64    33    66 1   
    65    34    35 1   
    66    34    67 1   
    67    34    68 1   
    68    35    36 1   
    69    35    69 1   
    70    35    70 1   
    71    36    37 1   
    72    37    38 2   
    73    37    39 1   
    74    39    71 1   
    75    39    72 1   
    76    39    73 1   
    77    40    41 2   
    78    40    42 1   
    79    42    74 1   
@<TRIPOS>SUBSTRUCTURE
     1 9IB         1 TEMP              0 ****  ****    0 ROOT
