@<TRIPOS>MOLECULE
9IC
   69    72     1     0     0
SMALL
No Charge or Current Charge


@<TRIPOS>ATOM
      1 C1          17.4930    24.5490    27.0270 ca         1 9IC      -0.111500
      2 C2          16.7940    23.4550    27.5610 ca         1 9IC      -0.105000
      3 C3          17.3990    22.6480    28.5370 ca         1 9IC      -0.111500
      4 C4          18.7020    22.9340    28.9780 ca         1 9IC      -0.097000
      5 C5          19.4290    24.0340    28.4540 cp         1 9IC      -0.039000
      6 C6          18.7970    24.8340    27.4680 ca         1 9IC      -0.097000
      7 C7          20.8160    24.3400    28.9280 cp         1 9IC      -0.028000
      8 C8          21.1840    24.1320    30.2800 ca         1 9IC      -0.072000
      9 C9          22.4860    24.4070    30.7420 ca         1 9IC      -0.107300
     10 C10         23.4490    24.8920    29.8360 ca         1 9IC      -0.103000
     11 C11         23.1060    25.1110    28.4920 ca         1 9IC      -0.113000
     12 C12         21.8030    24.8400    28.0430 ca         1 9IC      -0.092000
     13 C13         22.8310    24.1430    32.2050 c3         1 9IC       0.133000
     14 N14         23.6020    22.9020    32.3210 ns         1 9IC      -0.503900
     15 C15         23.0490    21.6400    32.2980 c          1 9IC       0.564100
     16 C16         24.0740    20.4600    32.3250 c3         1 9IC       0.041500
     17 O17         21.8400    21.4580    32.2790 o          1 9IC      -0.593100
     18 C18         24.0820    19.7320    30.9560 c3         1 9IC       0.188300
     19 N19         23.8930    19.4490    33.4460 n8         1 9IC      -1.009200
     20 O20         24.7390    18.4950    31.1990 oh         1 9IC      -0.664000
     21 C21         24.7930    20.5090    29.8300 c3         1 9IC      -0.100100
     22 C22         23.5590    25.3280    32.8840 c3         1 9IC       0.090000
     23 N23         23.5880    25.1670    34.3440 ns         1 9IC      -0.498900
     24 C24         23.1110    26.0890    35.2460 c          1 9IC       0.598100
     25 C25         22.9940    25.5790    36.6780 c3         1 9IC      -0.183400
     26 C26         21.5170    25.3440    37.0660 c3         1 9IC       0.108000
     27 N27         20.7720    24.5330    36.0700 n          1 9IC      -0.340300
     28 C28         20.0410    25.1620    35.0680 cc         1 9IC       0.514800
     29 N29         19.3470    24.5660    34.0960 nd         1 9IC      -0.610100
     30 C30         19.3590    23.1670    34.1380 ca         1 9IC       0.194400
     31 C31         20.0260    22.4240    35.1260 ca         1 9IC      -0.201600
     32 C32         20.7780    23.1460    36.1810 c          1 9IC       0.570600
     33 C33         18.6540    22.4840    33.1310 ca         1 9IC      -0.057000
     34 C34         18.6150    21.0800    33.0980 ca         1 9IC       0.005100
     35 C35         19.2860    20.3390    34.0880 ca         1 9IC       0.098000
     36 C36         19.9870    21.0120    35.1020 ca         1 9IC      -0.049000
     37 O37         21.3780    22.5580    37.0710 o          1 9IC      -0.538000
     38 Cl1         19.2700    18.5770    34.0790 cl         1 9IC      -0.158000
     39 Br1         17.6490    20.2070    31.6890 br         1 9IC      -0.049100
     40 O40         22.7880    27.2220    34.9240 o          1 9IC      -0.612100
     41 H1          17.0250    25.1770    26.2720 ha         1 9IC       0.113500
     42 H2          15.7850    23.2340    27.2200 ha         1 9IC       0.113000
     43 H3          16.8600    21.7970    28.9480 ha         1 9IC       0.113500
     44 H4          19.1590    22.2870    29.7230 ha         1 9IC       0.116500
     45 H5          19.3170    25.6930    27.0500 ha         1 9IC       0.116500
     46 H6          20.4440    23.7560    30.9810 ha         1 9IC       0.126000
     47 H7          24.4660    25.0940    30.1650 ha         1 9IC       0.104000
     48 H8          23.8530    25.4840    27.7960 ha         1 9IC       0.114000
     49 H9          21.5620    25.0020    26.9950 ha         1 9IC       0.117000
     50 H10         21.8870    24.0050    32.7500 h1         1 9IC       0.094700
     51 H11         24.6130    22.9630    32.3380 hn         1 9IC       0.309500
     52 H12         25.0700    20.9040    32.4620 h1         1 9IC       0.065700
     53 H13         23.0430    19.5420    30.6510 h1         1 9IC       0.049700
     54 H14         24.0470    19.9120    34.3530 hn         1 9IC       0.419000
     55 H15         22.8960    19.1910    33.5000 hn         1 9IC       0.419000
     56 H17         24.6400    18.4480    32.1890 ho         1 9IC       0.472000
     57 H18         24.2860    21.4630    29.6390 hc         1 9IC       0.044367
     58 H19         25.8360    20.7200    30.0960 hc         1 9IC       0.044367
     59 H20         24.7850    19.9300    28.8990 hc         1 9IC       0.044367
     60 H21         24.5880    25.4070    32.5100 h1         1 9IC       0.069700
     61 H22         23.0340    26.2560    32.6250 h1         1 9IC       0.069700
     62 H23         23.8510    24.2620    34.7170 hn         1 9IC       0.316500
     63 H24         23.5370    24.6340    36.7880 hc         1 9IC       0.078200
     64 H25         23.4160    26.3260    37.3600 hc         1 9IC       0.078200
     65 H26         21.4680    24.8660    38.0540 h1         1 9IC       0.075700
     66 H27         21.0200    26.3190    37.1680 h1         1 9IC       0.075700
     67 H28         20.0780    26.2440    35.1050 h5         1 9IC       0.068800
     68 H29         18.1340    23.0520    32.3650 ha         1 9IC       0.157000
     69 H30         20.5040    20.4310    35.8620 ha         1 9IC       0.150000
@<TRIPOS>BOND
     1     1     2 ar  
     2     1     6 ar  
     3     1    41 1   
     4     2     3 ar  
     5     2    42 1   
     6     3     4 ar  
     7     3    43 1   
     8     4     5 ar  
     9     4    44 1   
    10     5     6 ar  
    11     5     7 1   
    12     6    45 1   
    13     7     8 ar  
    14     7    12 ar  
    15     8     9 ar  
    16     8    46 1   
    17     9    10 ar  
    18     9    13 1   
    19    10    11 ar  
    20    10    47 1   
    21    11    12 ar  
    22    11    48 1   
    23    12    49 1   
    24    13    14 1   
    25    13    22 1   
    26    13    50 1   
    27    14    15 1   
    28    14    51 1   
    29    15    16 1   
    30    15    17 2   
    31    16    18 1   
    32    16    19 1   
    33    16    52 1   
    34    18    20 1   
    35    18    21 1   
    36    18    53 1   
    37    19    54 1   
    38    19    55 1   
    39    20    56 1   
    40    21    57 1   
    41    21    58 1   
    42    21    59 1   
    43    22    23 1   
    44    22    60 1   
    45    22    61 1   
    46    23    24 1   
    47    23    62 1   
    48    24    25 1   
    49    24    40 2   
    50    25    26 1   
    51    25    63 1   
    52    25    64 1   
    53    26    27 1   
    54    26    65 1   
    55    26    66 1   
    56    27    28 1   
    57    27    32 1   
    58    28    29 2   
    59    28    67 1   
    60    29    30 1   
    61    30    31 ar  
    62    30    33 ar  
    63    31    32 1   
    64    31    36 ar  
    65    32    37 2   
    66    33    34 ar  
    67    33    68 1   
    68    34    35 ar  
    69    34    39 1   
    70    35    36 ar  
    71    35    38 1   
    72    36    69 1   
@<TRIPOS>SUBSTRUCTURE
     1 9IC         1 TEMP              0 ****  ****    0 ROOT
