@<TRIPOS>MOLECULE
9IC
   69    72     1     0     0
SMALL
abcg2


@<TRIPOS>ATOM
      1 C1          17.9810    26.1610    26.4290 ca         1 9IC      -0.111500
      2 C2          16.8960    25.5360    27.0300 ca         1 9IC      -0.105000
      3 C3          17.1100    24.6640    28.0890 ca         1 9IC      -0.111500
      4 C4          18.3980    24.4190    28.5430 ca         1 9IC      -0.097000
      5 C5          19.4970    25.0430    27.9490 cp         1 9IC      -0.039000
      6 C6          19.2690    25.9170    26.8850 ca         1 9IC      -0.097000
      7 C7          20.8670    24.7830    28.4370 cp         1 9IC      -0.028000
      8 C8          21.1160    24.6150    29.8000 ca         1 9IC      -0.072000
      9 C9          22.3920    24.3570    30.2820 ca         1 9IC      -0.107300
     10 C10         23.4510    24.2690    29.3820 ca         1 9IC      -0.103000
     11 C11         23.2220    24.4360    28.0250 ca         1 9IC      -0.113000
     12 C12         21.9420    24.6890    27.5530 ca         1 9IC      -0.092000
     13 C13         22.6130    24.2110    31.7690 c3         1 9IC       0.133000
     14 N14         23.3700    23.0240    32.1080 ns         1 9IC      -0.503900
     15 C15         22.8070    21.8090    32.2090 c          1 9IC       0.564100
     16 C16         23.7600    20.6570    32.5050 c3         1 9IC       0.041500
     17 O17         21.6070    21.6170    32.0730 o          1 9IC      -0.593100
     18 C18         23.9780    19.8040    31.2410 c3         1 9IC       0.188300
     19 N19         23.2780    19.7780    33.5540 n8         1 9IC      -1.009200
     20 O20         24.7590    18.6860    31.5850 oh         1 9IC      -0.664000
     21 C21         24.6690    20.5650    30.1260 c3         1 9IC      -0.100100
     22 C22         23.3190    25.4440    32.3460 c3         1 9IC       0.090000
     23 N23         23.3640    25.4160    33.7880 ns         1 9IC      -0.498900
     24 C24         22.3280    25.8170    34.5420 c          1 9IC       0.598100
     25 C25         22.4830    25.6160    36.0350 c3         1 9IC      -0.183400
     26 C26         21.1690    25.2080    36.6860 c3         1 9IC       0.108000
     27 N27         20.6540    23.9410    36.1670 n          1 9IC      -0.340300
     28 C28         19.6450    23.9490    35.2490 cc         1 9IC       0.514800
     29 N29         19.1240    22.9180    34.6940 nd         1 9IC      -0.610100
     30 C30         19.6200    21.6940    35.0630 ca         1 9IC       0.194400
     31 C31         20.6380    21.5620    36.0120 ca         1 9IC      -0.201600
     32 C32         21.2140    22.7570    36.6200 c          1 9IC       0.570600
     33 C33         19.0770    20.5420    34.4800 ca         1 9IC      -0.057000
     34 C34         19.5410    19.2990    34.8450 ca         1 9IC       0.005100
     35 C35         20.5610    19.1730    35.8030 ca         1 9IC       0.098000
     36 C36         21.1020    20.2990    36.3790 ca         1 9IC      -0.049000
     37 O37         22.0970    22.7480    37.4550 o          1 9IC      -0.538000
     38 CL1         21.1540    17.6260    36.2650 cl         1 9IC      -0.158000
     39 BR1         18.7990    17.7760    34.0470 br         1 9IC      -0.049100
     40 O40         21.3220    26.3240    34.0650 o          1 9IC      -0.612100
     41 H1          17.8260    26.8480    25.6070 ha         1 9IC       0.113500
     42 H2          15.8920    25.7270    26.6750 ha         1 9IC       0.113000
     43 H3          16.2730    24.1650    28.5590 ha         1 9IC       0.113500
     44 H4          18.5480    23.7180    29.3550 ha         1 9IC       0.116500
     45 H5          20.1020    26.4290    26.4190 ha         1 9IC       0.116500
     46 H6          20.2990    24.7000    30.5090 ha         1 9IC       0.126000
     47 H7          24.4540    24.0640    29.7370 ha         1 9IC       0.104000
     48 H8          24.0450    24.3590    27.3260 ha         1 9IC       0.114000
     49 H9          21.7780    24.7900    26.4880 ha         1 9IC       0.117000
     50 H10         21.6370    24.1260    32.2520 h1         1 9IC       0.094700
     51 H11         24.3740    23.0990    32.1780 hn         1 9IC       0.309500
     52 H12         24.7350    21.0460    32.8170 h1         1 9IC       0.065700
     53 H13         22.9850    19.4840    30.8850 h1         1 9IC       0.049700
     54 H14         23.3830    20.2120    34.4620 hn         1 9IC       0.419000
     55 H15         22.2890    19.5950    33.4260 hn         1 9IC       0.419000
     56 H17         24.4450    18.4280    32.4670 ho         1 9IC       0.472000
     57 H18         24.0410    21.3720    29.7480 hc         1 9IC       0.044367
     58 H19         25.6100    21.0000    30.4670 hc         1 9IC       0.044367
     59 H20         24.8820    19.9030    29.2870 hc         1 9IC       0.044367
     60 H21         24.3410    25.5060    31.9670 h1         1 9IC       0.069700
     61 H22         22.7980    26.3400    32.0140 h1         1 9IC       0.069700
     62 H23         24.1400    24.9510    34.2310 hn         1 9IC       0.316500
     63 H24         23.2690    24.8970    36.2650 hc         1 9IC       0.078200
     64 H25         22.7910    26.5680    36.4780 hc         1 9IC       0.078200
     65 H26         21.2990    25.1160    37.7620 h1         1 9IC       0.075700
     66 H27         20.4080    25.9650    36.5150 h1         1 9IC       0.075700
     67 H28         19.2700    24.9310    34.9920 h5         1 9IC       0.068800
     68 H29         18.2910    20.6540    33.7450 ha         1 9IC       0.157000
     69 H30         21.8890    20.2060    37.1140 ha         1 9IC       0.150000
@<TRIPOS>BOND
     1     1     2 ar  
     2     1     6 ar  
     3     1    41 1   
     4     2     3 ar  
     5     2    42 1   
     6     3     4 ar  
     7     3    43 1   
     8     4     5 ar  
     9     4    44 1   
    10     5     6 ar  
    11     5     7 1   
    12     6    45 1   
    13     7     8 ar  
    14     7    12 ar  
    15     8     9 ar  
    16     8    46 1   
    17     9    10 ar  
    18     9    13 1   
    19    10    11 ar  
    20    10    47 1   
    21    11    12 ar  
    22    11    48 1   
    23    12    49 1   
    24    13    14 1   
    25    13    22 1   
    26    13    50 1   
    27    14    15 1   
    28    14    51 1   
    29    15    16 1   
    30    15    17 2   
    31    16    18 1   
    32    16    19 1   
    33    16    52 1   
    34    18    20 1   
    35    18    21 1   
    36    18    53 1   
    37    19    54 1   
    38    19    55 1   
    39    20    56 1   
    40    21    57 1   
    41    21    58 1   
    42    21    59 1   
    43    22    23 1   
    44    22    60 1   
    45    22    61 1   
    46    23    24 1   
    47    23    62 1   
    48    24    25 1   
    49    24    40 2   
    50    25    26 1   
    51    25    63 1   
    52    25    64 1   
    53    26    27 1   
    54    26    65 1   
    55    26    66 1   
    56    27    28 1   
    57    27    32 1   
    58    28    29 2   
    59    28    67 1   
    60    29    30 1   
    61    30    31 ar  
    62    30    33 ar  
    63    31    32 1   
    64    31    36 ar  
    65    32    37 2   
    66    33    34 ar  
    67    33    68 1   
    68    34    35 ar  
    69    34    39 1   
    70    35    36 ar  
    71    35    38 1   
    72    36    69 1   
@<TRIPOS>SUBSTRUCTURE
     1 9IC         1 TEMP              0 ****  ****    0 ROOT
