@<TRIPOS>MOLECULE
9ID
   54    57     1     0     0
SMALL
abcg2


@<TRIPOS>ATOM
      1 N1         -37.3810     2.6280    28.0330 nu         1 9ID      -0.881900
      2 N3         -36.9380     0.0970    25.4780 nb         1 9ID      -0.616000
      3 C4         -37.6820     2.1260    24.5570 ca         1 9ID       0.384900
      4 C5         -37.2660     0.7960    24.3890 ca         1 9ID       0.275800
      5 C6         -36.9670     0.6650    26.6760 ca         1 9ID       0.162500
      6 C7         -36.5790    -0.1900    27.8380 c          1 9ID       0.526600
      7 C8         -37.1950     0.1200    23.0820 ce         1 9ID      -0.160000
      8 C10        -36.9930     0.1620    20.5800 c6         1 9ID      -0.038200
      9 C13        -37.2250    -1.3910    23.1090 c6         1 9ID      -0.038200
     10 C15        -37.7270    -5.7460    21.1950 ca         1 9ID      -0.148600
     11 C17        -37.0160    -7.6330    22.5270 ca         1 9ID      -0.119000
     12 C20        -37.9260    -6.6020    20.1110 ca         1 9ID      -0.073500
     13 C21        -37.7740     4.4570    29.6480 cc         1 9ID       0.220900
     14 O1         -38.8920    -3.9170    20.2020 o          1 9ID      -0.607100
     15 C14        -38.0410    -4.2910    21.0150 c          1 9ID       0.608700
     16 C19        -37.6590    -7.9600    20.2280 ca         1 9ID      -0.119000
     17 C18        -37.2050    -8.4790    21.4380 ca         1 9ID      -0.090000
     18 C16        -37.2720    -6.2720    22.4070 ca         1 9ID      -0.073500
     19 C12        -37.5330    -1.9880    21.7400 c6         1 9ID       0.110700
     20 C11        -36.6760    -1.3300    20.6590 c6         1 9ID      -0.093400
     21 C9         -37.0890     0.8010    21.9330 c2         1 9ID      -0.205200
     22 N2         -37.7260     2.7260    25.7330 nb         1 9ID      -0.732000
     23 N4         -36.2630    -1.4560    27.5380 nt         1 9ID      -0.575000
     24 O          -36.5520     0.2520    28.9980 o          1 9ID      -0.650100
     25 C3         -37.3580     2.0260    26.8220 ca         1 9ID       0.624900
     26 C2         -37.7670     3.9280    28.3400 cc         1 9ID       0.164000
     27 C1         -38.2120     4.9700    27.5370 cd         1 9ID      -0.167000
     28 N6         -38.1910     5.7230    29.6510 nd         1 9ID      -0.510800
     29 N          -38.4520     6.0150    28.3690 na         1 9ID       0.118800
     30 C          -38.9160     7.3370    27.9970 c3         1 9ID       0.079900
     31 H1         -37.0990     2.0190    28.7970 hn         1 9ID       0.553000
     32 H2         -38.0090     2.7140    23.7070 h4         1 9ID       0.028100
     33 H3         -36.2340     0.6800    19.9860 hc         1 9ID       0.055200
     34 H4         -37.9390     0.3150    20.0440 hc         1 9ID       0.055200
     35 H5         -37.9660    -1.7300    23.8350 hc         1 9ID       0.056700
     36 H6         -36.2600    -1.7680    23.4670 hc         1 9ID       0.056700
     37 H7         -36.6760    -8.0340    23.4740 ha         1 9ID       0.117000
     38 H8         -38.2860    -6.1920    19.1770 ha         1 9ID       0.122500
     39 H9         -37.4960     3.9630    30.5660 h4         1 9ID       0.044100
     40 H10        -37.8060    -8.6130    19.3780 ha         1 9ID       0.117000
     41 H11        -37.0020    -9.5380    21.5330 ha         1 9ID       0.116000
     42 H12        -37.1420    -5.6320    23.2700 ha         1 9ID       0.122500
     43 H13        -36.5840    -3.7850    22.3420 hn         1 9ID       0.311500
     44 H14        -38.5840    -1.8150    21.5000 h1         1 9ID       0.082700
     45 H15        -36.8550    -1.8120    19.6970 hc         1 9ID       0.052200
     46 H16        -35.6210    -1.4770    20.9120 hc         1 9ID       0.052200
     47 H17        -37.0590     1.8840    21.9530 ha         1 9ID       0.171000
     48 H18        -35.9840    -2.0900    28.2690 hn         1 9ID       0.331500
     49 H19        -36.2950    -1.7640    26.5790 hn         1 9ID       0.331500
     50 H20        -38.3690     5.0360    26.4780 h4         1 9ID       0.176000
     51 H21        -39.8220     7.5810    28.5520 h1         1 9ID       0.056367
     52 H22        -38.1480     8.0800    28.2110 h1         1 9ID       0.056367
     53 H23        -39.1340     7.3390    26.9310 h1         1 9ID       0.056367
     54 N5         -37.3500    -3.4320    21.7890 ns         1 9ID      -0.501900
@<TRIPOS>BOND
     1     1    25 1   
     2     1    26 1   
     3     1    31 1   
     4     2     4 ar  
     5     2     5 ar  
     6     3     4 ar  
     7     3    22 ar  
     8     3    32 1   
     9     4     7 1   
    10     5     6 1   
    11     5    25 ar  
    12     6    23 1   
    13     6    24 2   
    14     7     9 1   
    15     7    21 2   
    16     8    20 1   
    17     8    21 1   
    18     8    33 1   
    19     8    34 1   
    20     9    19 1   
    21     9    35 1   
    22     9    36 1   
    23    10    12 ar  
    24    10    15 1   
    25    10    18 ar  
    26    11    17 ar  
    27    11    18 ar  
    28    11    37 1   
    29    12    16 ar  
    30    12    38 1   
    31    13    26 1   
    32    13    28 2   
    33    13    39 1   
    34    14    15 2   
    35    15    54 1   
    36    16    17 ar  
    37    16    40 1   
    38    17    41 1   
    39    18    42 1   
    40    19    20 1   
    41    19    44 1   
    42    19    54 1   
    43    20    45 1   
    44    20    46 1   
    45    21    47 1   
    46    22    25 ar  
    47    23    48 1   
    48    23    49 1   
    49    26    27 2   
    50    27    29 1   
    51    27    50 1   
    52    28    29 1   
    53    29    30 1   
    54    30    51 1   
    55    30    52 1   
    56    30    53 1   
    57    43    54 1   
@<TRIPOS>SUBSTRUCTURE
     1 9ID         1 TEMP              0 ****  ****    0 ROOT
