@<TRIPOS>MOLECULE
9ID
   54    57     1     0     0
SMALL
No Charge or Current Charge


@<TRIPOS>ATOM
      1 N1         -37.4830     2.7910    28.0020 nu         1 9ID      -0.881900
      2 N3         -36.5620     0.1130    25.5490 nb         1 9ID      -0.616000
      3 C4         -37.6650     2.0350    24.5500 ca         1 9ID       0.384900
      4 C5         -37.0560     0.7490    24.4520 ca         1 9ID       0.275800
      5 C6         -36.6960     0.7810    26.7450 ca         1 9ID       0.162500
      6 C7         -36.1600     0.1240    28.0110 c          1 9ID       0.526600
      7 C8         -36.9090     0.0530    23.1350 ce         1 9ID      -0.160000
      8 C10        -36.4000     0.0550    20.6420 c6         1 9ID      -0.038200
      9 C13        -37.1440    -1.4700    23.1140 c6         1 9ID      -0.038200
     10 C15        -37.9280    -5.7920    20.9740 ca         1 9ID      -0.148600
     11 C17        -37.0730    -7.7460    22.1850 ca         1 9ID      -0.119000
     12 C20        -38.5590    -6.6700    20.0630 ca         1 9ID      -0.073500
     13 C21        -37.7350     4.6740    29.5810 cc         1 9ID       0.220900
     14 O1         -38.7160    -3.8120    19.8620 o          1 9ID      -0.607100
     15 C14        -38.0690    -4.2940    20.7830 c          1 9ID       0.608700
     16 C19        -38.4480    -8.0640    20.2100 ca         1 9ID      -0.119000
     17 C18        -37.7050    -8.6030    21.2710 ca         1 9ID      -0.090000
     18 C16        -37.1800    -6.3510    22.0410 ca         1 9ID      -0.073500
     19 C12        -37.4200    -2.0200    21.6930 c6         1 9ID       0.110700
     20 C11        -36.3340    -1.4870    20.7320 c6         1 9ID      -0.093400
     21 C9         -36.5480     0.7160    22.0070 c2         1 9ID      -0.205200
     22 N2         -37.8030     2.7040    25.7280 nb         1 9ID      -0.732000
     23 N4         -35.5890    -1.0970    27.8840 nt         1 9ID      -0.575000
     24 O          -36.2120     0.6340    29.1240 o          1 9ID      -0.650100
     25 C3         -37.3210     2.0740    26.8180 ca         1 9ID       0.624900
     26 C2         -37.9350     4.0660    28.3210 cc         1 9ID       0.164000
     27 C1         -38.6630     4.9540    27.5940 cd         1 9ID      -0.167000
     28 N6         -38.2670     5.8770    29.6930 nd         1 9ID      -0.510800
     29 N          -38.8470     6.0530    28.4430 na         1 9ID       0.118800
     30 C          -39.5720     7.2900    28.1200 c3         1 9ID       0.079900
     31 H1         -37.0680     2.2730    28.7900 hn         1 9ID       0.553000
     32 H2         -38.0540     2.5350    23.6640 h4         1 9ID       0.028100
     33 H3         -35.5020     0.4360    20.1360 hc         1 9ID       0.055200
     34 H4         -37.2540     0.3460    20.0150 hc         1 9ID       0.055200
     35 H5         -37.9870    -1.7270    23.7710 hc         1 9ID       0.056700
     36 H6         -36.2600    -1.9670    23.5360 hc         1 9ID       0.056700
     37 H7         -36.4960    -8.1630    23.0070 ha         1 9ID       0.117000
     38 H8         -39.1410    -6.2740    19.2320 ha         1 9ID       0.122500
     39 H9         -37.2080     4.2590    30.4300 h4         1 9ID       0.044100
     40 H10        -38.9400    -8.7250    19.5010 ha         1 9ID       0.117000
     41 H11        -37.6200    -9.6820    21.3850 ha         1 9ID       0.116000
     42 H12        -36.6750    -5.7220    22.7700 ha         1 9ID       0.122500
     43 H13        -36.9210    -3.9620    22.4350 hn         1 9ID       0.311500
     44 H14        -38.4050    -1.6600    21.3570 h1         1 9ID       0.082700
     45 H15        -36.4610    -1.9180    19.7300 hc         1 9ID       0.052200
     46 H16        -35.3400    -1.7960    21.0840 hc         1 9ID       0.052200
     47 H17        -36.3530     1.7900    22.0260 ha         1 9ID       0.171000
     48 H18        -35.2200    -1.5670    28.6970 hn         1 9ID       0.331500
     49 H19        -35.5400    -1.5230    26.9680 hn         1 9ID       0.331500
     50 H20        -39.0550     4.9040    26.5880 h4         1 9ID       0.176000
     51 H21        -40.4440     7.3850    28.7780 h1         1 9ID       0.056367
     52 H22        -38.9100     8.1520    28.2650 h1         1 9ID       0.056367
     53 H23        -39.9070     7.2620    27.0760 h1         1 9ID       0.056367
     54 N5         -37.4330    -3.4890    21.7040 ns         1 9ID      -0.501900
@<TRIPOS>BOND
     1     1    25 1   
     2     1    26 1   
     3     1    31 1   
     4     2     4 ar  
     5     2     5 ar  
     6     3     4 ar  
     7     3    22 ar  
     8     3    32 1   
     9     4     7 1   
    10     5     6 1   
    11     5    25 ar  
    12     6    23 1   
    13     6    24 2   
    14     7     9 1   
    15     7    21 2   
    16     8    20 1   
    17     8    21 1   
    18     8    33 1   
    19     8    34 1   
    20     9    19 1   
    21     9    35 1   
    22     9    36 1   
    23    10    12 ar  
    24    10    15 1   
    25    10    18 ar  
    26    11    17 ar  
    27    11    18 ar  
    28    11    37 1   
    29    12    16 ar  
    30    12    38 1   
    31    13    26 1   
    32    13    28 2   
    33    13    39 1   
    34    14    15 2   
    35    15    54 1   
    36    16    17 ar  
    37    16    40 1   
    38    17    41 1   
    39    18    42 1   
    40    19    20 1   
    41    19    44 1   
    42    19    54 1   
    43    20    45 1   
    44    20    46 1   
    45    21    47 1   
    46    22    25 ar  
    47    23    48 1   
    48    23    49 1   
    49    26    27 2   
    50    27    29 1   
    51    27    50 1   
    52    28    29 1   
    53    29    30 1   
    54    30    51 1   
    55    30    52 1   
    56    30    53 1   
    57    43    54 1   
@<TRIPOS>SUBSTRUCTURE
     1 9ID         1 TEMP              0 ****  ****    0 ROOT
