@<TRIPOS>MOLECULE
9IE
   46    49     1     0     0
SMALL
No Charge or Current Charge


@<TRIPOS>ATOM
      1 N1         -22.1920     9.8820    19.6600 n          1 9IE      -0.284000
      2 C2         -23.3160    15.3660    20.5270 c3         1 9IE      -0.131400
      3 C3         -23.5800    14.1950    21.4970 c3         1 9IE       0.155600
      4 C4         -23.3200    12.4770    19.1360 cc         1 9IE       0.203800
      5 C6         -23.0060    10.0710    18.4940 ca         1 9IE       0.106600
      6 C8         -23.4010     8.9630    17.7080 ca         1 9IE      -0.151000
      7 C11        -25.9780     9.8770    14.0970 ca         1 9IE       0.421000
      8 C15        -27.2290     9.9060    13.4630 ca         1 9IE      -0.174000
      9 C19        -22.0740    10.8680    20.6600 c          1 9IE       0.581200
     10 C18        -22.6660    12.2010    20.3390 cd         1 9IE      -0.100100
     11 O          -22.5820    13.1620    21.3430 os         1 9IE      -0.312100
     12 N          -23.6270    13.7590    18.7090 nu         1 9IE      -0.845200
     13 C1         -22.8660    14.9350    19.1230 c3         1 9IE       0.240500
     14 C          -23.0040    16.0560    18.0770 c3         1 9IE      -0.104100
     15 C7         -21.3800     8.6440    19.7950 c3         1 9IE       0.070300
     16 C9         -24.2890     9.1210    16.6330 ca         1 9IE      -0.076000
     17 C10        -24.8360    10.3790    16.3470 ca         1 9IE       0.229000
     18 C17        -24.5140    11.4640    17.1780 ca         1 9IE      -0.076000
     19 C5         -23.6070    11.3280    18.2610 ca         1 9IE      -0.108800
     20 N2         -25.7480    10.5600    15.2980 nu         1 9IE      -0.973000
     21 C16        -28.3410    10.6090    14.0250 cg         1 9IE       0.336000
     22 N4         -29.2390    11.1940    14.4880 n1         1 9IE      -0.455000
     23 C14        -27.3750     9.2080    12.2560 ca         1 9IE       0.518000
     24 Cl         -28.9080     9.1660    11.3820 cl         1 9IE      -0.144000
     25 N3         -26.3730     8.5210    11.6670 nb         1 9IE      -0.696000
     26 C13        -25.1720     8.5160    12.2790 ca         1 9IE       0.404900
     27 C12        -24.9360     9.1800    13.4840 ca         1 9IE      -0.248000
     28 H1         -22.5520    16.0250    20.9560 hc         1 9IE       0.054700
     29 H2         -24.2360    15.9580    20.4540 hc         1 9IE       0.054700
     30 H3         -23.5690    14.5830    22.5230 h1         1 9IE       0.054200
     31 H4         -24.5820    13.7820    21.3180 h1         1 9IE       0.054200
     32 H5         -23.0320     7.9640    17.9180 ha         1 9IE       0.129000
     33 H6         -24.0560    13.8100    17.7870 hn         1 9IE       0.482000
     34 H7         -21.8010    14.6650    19.1810 h1         1 9IE       0.075700
     35 H8         -22.4210    16.9340    18.3800 hc         1 9IE       0.044700
     36 H9         -22.6300    15.7230    17.1020 hc         1 9IE       0.044700
     37 H10        -24.0510    16.3620    17.9620 hc         1 9IE       0.044700
     38 H11        -20.5220     8.8000    20.4600 h1         1 9IE       0.056367
     39 H12        -22.0040     7.8370    20.2010 h1         1 9IE       0.056367
     40 H13        -20.9880     8.3430    18.8160 h1         1 9IE       0.056367
     41 H14        -24.5750     8.2520    16.0470 ha         1 9IE       0.130000
     42 H15        -24.9960    12.4150    16.9760 ha         1 9IE       0.122000
     43 H16        -26.3820    11.3490    15.4380 hn         1 9IE       0.512000
     44 H17        -24.3740     7.9670    11.7810 h4         1 9IE       0.028100
     45 H18        -23.9420     9.1620    13.9150 ha         1 9IE       0.140000
     46 O1         -21.4950    10.6480    21.7200 o          1 9IE      -0.527000
@<TRIPOS>BOND
     1     1     5 1   
     2     1     9 1   
     3     1    15 1   
     4     2     3 1   
     5     2    13 1   
     6     2    28 1   
     7     2    29 1   
     8     3    11 1   
     9     3    30 1   
    10     3    31 1   
    11     4    10 2   
    12     4    12 1   
    13     4    19 1   
    14     5     6 ar  
    15     5    19 ar  
    16     6    16 ar  
    17     6    32 1   
    18     7     8 ar  
    19     7    20 1   
    20     7    27 ar  
    21     8    21 1   
    22     8    23 ar  
    23     9    10 1   
    24     9    46 2   
    25    10    11 1   
    26    12    13 1   
    27    12    33 1   
    28    13    14 1   
    29    13    34 1   
    30    14    35 1   
    31    14    36 1   
    32    14    37 1   
    33    15    38 1   
    34    15    39 1   
    35    15    40 1   
    36    16    17 ar  
    37    16    41 1   
    38    17    18 ar  
    39    17    20 1   
    40    18    19 ar  
    41    18    42 1   
    42    20    43 1   
    43    21    22 3   
    44    23    24 1   
    45    23    25 ar  
    46    25    26 ar  
    47    26    27 ar  
    48    26    44 1   
    49    27    45 1   
@<TRIPOS>SUBSTRUCTURE
     1 9IE         1 TEMP              0 ****  ****    0 ROOT
