@<TRIPOS>MOLECULE
9IE
   46    49     1     0     0
SMALL
abcg2


@<TRIPOS>ATOM
      1 N1         -22.2300     9.8910    19.6000 n          1 9IE      -0.284000
      2 C2         -23.1740    15.3150    20.4150 c3         1 9IE      -0.131400
      3 C3         -23.0030    14.1120    21.3310 c3         1 9IE       0.155600
      4 C4         -23.2410    12.4490    18.9980 cc         1 9IE       0.203800
      5 C6         -23.1740    10.0150    18.6040 ca         1 9IE       0.106600
      6 C8         -23.6380     8.8900    17.9090 ca         1 9IE      -0.151000
      7 C11        -25.9370     9.9180    14.2650 ca         1 9IE       0.421000
      8 C15        -27.0460    10.0110    13.3900 ca         1 9IE      -0.174000
      9 C19        -21.7950    10.9670    20.3530 c          1 9IE       0.581200
     10 C18        -22.3640    12.2600    20.0270 cd         1 9IE      -0.100100
     11 O          -21.9690    13.2470    20.8730 os         1 9IE      -0.312100
     12 N          -23.6980    13.6770    18.6200 nu         1 9IE      -0.845200
     13 C1         -23.0260    14.9230    18.9460 c3         1 9IE       0.240500
     14 C          -23.5330    16.0170    18.0200 c3         1 9IE      -0.104100
     15 C7         -21.6910     8.5760    19.9040 c3         1 9IE       0.070300
     16 C9         -24.5700     9.0100    16.9020 ca         1 9IE      -0.076000
     17 C10        -25.0340    10.2690    16.5230 ca         1 9IE       0.229000
     18 C17        -24.5780    11.3860    17.1920 ca         1 9IE      -0.076000
     19 C5         -23.6820    11.2810    18.2590 ca         1 9IE      -0.108800
     20 N2         -26.0050    10.4190    15.5120 nu         1 9IE      -0.973000
     21 C16        -28.2510    10.6140    13.8250 cg         1 9IE       0.336000
     22 N4         -29.2140    11.1110    14.2200 n1         1 9IE      -0.455000
     23 C14        -26.9220     9.4860    12.1020 ca         1 9IE       0.518000
     24 CL         -28.2810     9.6070    11.0430 cl         1 9IE      -0.144000
     25 N3         -25.8580     8.9050    11.6300 nb         1 9IE      -0.696000
     26 C13        -24.8080     8.8230    12.4580 ca         1 9IE       0.404900
     27 C12        -24.7880     9.2970    13.7440 ca         1 9IE      -0.248000
     28 H1         -22.4360    16.0870    20.6450 hc         1 9IE       0.054700
     29 H2         -24.1600    15.7530    20.5980 hc         1 9IE       0.054700
     30 H3         -22.7220    14.4300    22.3370 h1         1 9IE       0.054200
     31 H4         -23.9400    13.5540    21.4160 h1         1 9IE       0.054200
     32 H5         -23.2900     7.9000    18.1640 ha         1 9IE       0.129000
     33 H6         -24.6510    13.7490    18.3000 hn         1 9IE       0.482000
     34 H7         -21.9630    14.7740    18.7340 h1         1 9IE       0.075700
     35 H8         -23.0370    16.9600    18.2440 hc         1 9IE       0.044700
     36 H9         -23.3420    15.7720    16.9760 hc         1 9IE       0.044700
     37 H10        -24.6080    16.1690    18.1470 hc         1 9IE       0.044700
     38 H11        -20.9330     8.6760    20.6710 h1         1 9IE       0.056367
     39 H12        -22.4710     7.9100    20.2710 h1         1 9IE       0.056367
     40 H13        -21.2360     8.1350    19.0180 h1         1 9IE       0.056367
     41 H14        -24.9390     8.1180    16.4120 ha         1 9IE       0.130000
     42 H15        -24.9280    12.3570    16.8670 ha         1 9IE       0.122000
     43 H16        -26.8040    10.9900    15.7510 hn         1 9IE       0.512000
     44 H17        -23.9230     8.3490    12.0510 h4         1 9IE       0.028100
     45 H18        -23.8870     9.2020    14.3330 ha         1 9IE       0.140000
     46 O1         -20.9850    10.8250    21.2600 o          1 9IE      -0.527000
@<TRIPOS>BOND
     1     1     5 1   
     2     1     9 1   
     3     1    15 1   
     4     2     3 1   
     5     2    13 1   
     6     2    28 1   
     7     2    29 1   
     8     3    11 1   
     9     3    30 1   
    10     3    31 1   
    11     4    10 2   
    12     4    12 1   
    13     4    19 1   
    14     5     6 ar  
    15     5    19 ar  
    16     6    16 ar  
    17     6    32 1   
    18     7     8 ar  
    19     7    20 1   
    20     7    27 ar  
    21     8    21 1   
    22     8    23 ar  
    23     9    10 1   
    24     9    46 2   
    25    10    11 1   
    26    12    13 1   
    27    12    33 1   
    28    13    14 1   
    29    13    34 1   
    30    14    35 1   
    31    14    36 1   
    32    14    37 1   
    33    15    38 1   
    34    15    39 1   
    35    15    40 1   
    36    16    17 ar  
    37    16    41 1   
    38    17    18 ar  
    39    17    20 1   
    40    18    19 ar  
    41    18    42 1   
    42    20    43 1   
    43    21    22 3   
    44    23    24 1   
    45    23    25 ar  
    46    25    26 ar  
    47    26    27 ar  
    48    26    44 1   
    49    27    45 1   
@<TRIPOS>SUBSTRUCTURE
     1 9IE         1 TEMP              0 ****  ****    0 ROOT
