@<TRIPOS>MOLECULE
9IF
   53    56     1     0     0
SMALL
No Charge or Current Charge


@<TRIPOS>ATOM
      1 C11         11.7840    37.9110    -0.8010 c          1 9IF       0.516600
      2 C13         14.7350    39.1760    -2.8870 c          1 9IF       0.712000
      3 C14         10.9930    30.5850     3.6510 ca         1 9IF       0.085100
      4 C16         12.2670    28.6660     4.4450 ca         1 9IF      -0.130000
      5 C17         12.4020    28.2050     3.1250 ca         1 9IF       0.110100
      6 C18         11.8070    28.9200     2.0660 ca         1 9IF      -0.130000
      7 C19         11.1030    30.1090     2.3290 ca         1 9IF      -0.095500
      8 C21         14.7240    27.8920     1.3210 ca         1 9IF      -0.146000
      9 C22         15.5630    27.6730     0.2150 ca         1 9IF      -0.086500
     10 C23         15.5940    26.4110    -0.4040 ca         1 9IF      -0.134000
     11 C24         14.7900    25.3660     0.0850 ca         1 9IF      -0.086500
     12 C25         13.9510    25.5860     1.1920 ca         1 9IF      -0.146000
     13 C1          15.1700    34.4260     0.5760 c3         1 9IF       0.159900
     14 C2          12.7850    34.8160     1.0430 ca         1 9IF       0.546300
     15 O1          10.8130    38.6380    -1.0110 o          1 9IF      -0.674100
     16 C3          11.5910    34.4050     1.6930 ca         1 9IF      -0.025000
     17 C4          11.5520    33.2500     2.5080 ca         1 9IF      -0.162000
     18 N1          12.8430    35.9170     0.2600 nb         1 9IF      -0.711000
     19 C5          10.3540    32.8590     3.1320 ca         1 9IF       0.124100
     20 C6           9.1950    33.6290     2.9680 ca         1 9IF      -0.139000
     21 N2          13.0190    38.1730    -1.3590 ns         1 9IF      -0.401900
     22 C7           9.2190    34.7800     2.1630 ca         1 9IF      -0.044000
     23 C8          10.4140    35.1730     1.5200 ca         1 9IF      -0.066000
     24 C9          10.4740    36.3240     0.7020 ca         1 9IF       0.173100
     25 C10         11.7110    36.6650     0.0860 ca         1 9IF       0.190500
     26 C12         13.3350    39.3210    -2.2360 c3         1 9IF      -0.068000
     27 O2          14.8160    39.2480    -4.1050 o          1 9IF      -0.720500
     28 C15         11.5630    29.8550     4.7080 ca         1 9IF      -0.095500
     29 C20         13.9080    26.8490     1.8040 ca         1 9IF       0.122100
     30 O3          15.6910    38.9470    -2.1590 o          1 9IF      -0.720500
     31 O5          10.3030    31.7420     3.9360 os         1 9IF      -0.254200
     32 O7          13.0870    27.0330     2.8940 os         1 9IF      -0.257200
     33 H1          12.7120    28.1040     5.2620 ha         1 9IF       0.129500
     34 H2          11.8840    28.5540     1.0450 ha         1 9IF       0.129500
     35 H3          10.6410    30.6540     1.5090 ha         1 9IF       0.133500
     36 H6          16.2440    26.2410    -1.2600 ha         1 9IF       0.114000
     37 H7          14.8180    24.3880    -0.3920 ha         1 9IF       0.114500
     38 H8          13.3300    24.7790     1.5730 ha         1 9IF       0.129000
     39 H9          15.9570    33.7060     0.8350 h1         1 9IF       0.043367
     40 H10         15.0620    34.4320    -0.5170 h1         1 9IF       0.043367
     41 H11         15.5010    35.4220     0.8990 h1         1 9IF       0.043367
     42 H12         12.4510    32.6570     2.6600 ha         1 9IF       0.137000
     43 H13          8.2730    33.3310     3.4620 ha         1 9IF       0.122000
     44 H14         13.7580    37.5210    -1.1140 hn         1 9IF       0.319500
     45 H15          8.3060    35.3600     2.0450 ha         1 9IF       0.136000
     46 H16         13.3190    40.2450    -1.6450 h1         1 9IF       0.040700
     47 H17         12.5770    39.3930    -3.0270 h1         1 9IF       0.040700
     48 H19         11.4630    30.2150     5.7300 ha         1 9IF       0.133500
     49 O6          13.9300    34.0640     1.2140 os         1 9IF      -0.475300
     50 H4          14.7120    28.8670     1.8030 ha         1 9IF       0.129000
     51 O4           9.3540    37.0980     0.5080 oh         1 9IF      -0.566100
     52 H5          16.1910    28.4790    -0.1610 ha         1 9IF       0.114500
     53 H20          9.6310    37.8440    -0.0960 ho         1 9IF       0.540000
@<TRIPOS>BOND
     1     1    15 2   
     2     1    21 1   
     3     1    25 1   
     4     2    26 1   
     5     2    27 1   
     6     2    30 1   
     7     3     7 ar  
     8     3    28 ar  
     9     3    31 1   
    10     4     5 ar  
    11     4    28 ar  
    12     4    33 1   
    13     5     6 ar  
    14     5    32 1   
    15     6     7 ar  
    16     6    34 1   
    17     7    35 1   
    18     8     9 ar  
    19     8    29 ar  
    20     8    50 1   
    21     9    10 ar  
    22     9    52 1   
    23    10    11 ar  
    24    10    36 1   
    25    11    12 ar  
    26    11    37 1   
    27    12    29 ar  
    28    12    38 1   
    29    13    39 1   
    30    13    40 1   
    31    13    41 1   
    32    13    49 1   
    33    14    16 ar  
    34    14    18 ar  
    35    14    49 1   
    36    16    17 ar  
    37    16    23 ar  
    38    17    19 ar  
    39    17    42 1   
    40    18    25 ar  
    41    19    20 ar  
    42    19    31 1   
    43    20    22 ar  
    44    20    43 1   
    45    21    26 1   
    46    21    44 1   
    47    22    23 ar  
    48    22    45 1   
    49    23    24 ar  
    50    24    25 ar  
    51    24    51 1   
    52    26    46 1   
    53    26    47 1   
    54    28    48 1   
    55    29    32 1   
    56    51    53 1   
@<TRIPOS>SUBSTRUCTURE
     1 9IF         1 TEMP              0 ****  ****    0 ROOT
