@<TRIPOS>MOLECULE
9IF
   53    56     1     0     0
SMALL
abcg2


@<TRIPOS>ATOM
      1 C11         12.3110    37.9860    -0.2450 c          1 9IF       0.516600
      2 C13         13.5230    38.9690    -3.0870 c          1 9IF       0.712000
      3 C14         10.5660    30.4540     3.0460 ca         1 9IF       0.085100
      4 C16         12.3940    29.3350     4.1150 ca         1 9IF      -0.130000
      5 C17         12.4780    28.4630     3.0390 ca         1 9IF       0.110100
      6 C18         11.5910    28.5710     1.9740 ca         1 9IF      -0.130000
      7 C19         10.6380    29.5760     1.9760 ca         1 9IF      -0.095500
      8 C21         14.6350    28.2150     1.1390 ca         1 9IF      -0.146000
      9 C22         15.4710    27.8790     0.0820 ca         1 9IF      -0.086500
     10 C23         15.8810    26.5670    -0.1100 ca         1 9IF      -0.134000
     11 C24         15.4490    25.5830     0.7700 ca         1 9IF      -0.086500
     12 C25         14.6050    25.9010     1.8240 ca         1 9IF      -0.146000
     13 C1          14.9250    33.9410     0.3760 c3         1 9IF       0.159900
     14 C2          12.7230    34.5840     0.9200 ca         1 9IF       0.546300
     15 O1          11.4490    38.8840    -0.3020 o          1 9IF      -0.674100
     16 C3          11.4550    34.2250     1.4910 ca         1 9IF      -0.025000
     17 C4          11.2050    32.9450     2.0110 ca         1 9IF      -0.162000
     18 N1          12.9590    35.7400     0.4090 nb         1 9IF      -0.711000
     19 C5           9.9640    32.6580     2.5310 ca         1 9IF       0.124100
     20 C6           8.9550    33.6390     2.5540 ca         1 9IF      -0.139000
     21 N2          13.5440    38.1220    -0.7180 ns         1 9IF      -0.401900
     22 C7           9.1940    34.8880     2.0500 ca         1 9IF      -0.044000
     23 C8          10.4510    35.2110     1.4990 ca         1 9IF      -0.066000
     24 C9          10.7400    36.4890     0.9320 ca         1 9IF       0.173100
     25 C10         11.9920    36.6960     0.3980 ca         1 9IF       0.190500
     26 C12         13.9400    39.1830    -1.6060 c3         1 9IF      -0.068000
     27 O2          13.9360    39.8490    -3.8650 o          1 9IF      -0.720500
     28 C15         11.4300    30.3320     4.1210 ca         1 9IF      -0.095500
     29 C20         14.2030    27.2180     2.0060 ca         1 9IF       0.122100
     30 O3          12.8360    37.9690    -3.3500 o          1 9IF      -0.720500
     31 O5           9.6180    31.4510     3.0420 os         1 9IF      -0.254200
     32 O7          13.4200    27.4770     3.0960 os         1 9IF      -0.257200
     33 H1          13.0820    29.2380     4.9450 ha         1 9IF       0.129500
     34 H2          11.6400    27.8820     1.1410 ha         1 9IF       0.129500
     35 H3           9.9510    29.6740     1.1450 ha         1 9IF       0.133500
     36 H6          16.5340    26.3150    -0.9350 ha         1 9IF       0.114000
     37 H7          15.7630    24.5560     0.6330 ha         1 9IF       0.114500
     38 H8          14.2630    25.1340     2.5070 ha         1 9IF       0.129000
     39 H9          15.5280    33.0430     0.4880 h1         1 9IF       0.043367
     40 H10         14.8440    34.1930    -0.6830 h1         1 9IF       0.043367
     41 H11         15.4090    34.7690     0.8960 h1         1 9IF       0.043367
     42 H12         11.9880    32.2010     1.9890 ha         1 9IF       0.137000
     43 H13          7.9860    33.3940     2.9710 ha         1 9IF       0.122000
     44 H14         14.1190    37.2930    -0.6820 hn         1 9IF       0.319500
     45 H15          8.4060    35.6270     2.0720 ha         1 9IF       0.136000
     46 H16         15.0250    39.2820    -1.5490 h1         1 9IF       0.040700
     47 H17         13.5270    40.1290    -1.2530 h1         1 9IF       0.040700
     48 H19         11.3650    31.0190     4.9560 ha         1 9IF       0.133500
     49 O6          13.6600    33.6350     0.9400 os         1 9IF      -0.475300
     50 H4          14.3340    29.2450     1.2800 ha         1 9IF       0.129000
     51 O4           9.7840    37.4130     0.9340 oh         1 9IF      -0.566100
     52 H5          15.8050    28.6570    -0.5920 ha         1 9IF       0.114500
     53 H20         10.1750    38.2040     0.4720 ho         1 9IF       0.540000
@<TRIPOS>BOND
     1     1    15 2   
     2     1    21 1   
     3     1    25 1   
     4     2    26 1   
     5     2    27 1   
     6     2    30 1   
     7     3     7 ar  
     8     3    28 ar  
     9     3    31 1   
    10     4     5 ar  
    11     4    28 ar  
    12     4    33 1   
    13     5     6 ar  
    14     5    32 1   
    15     6     7 ar  
    16     6    34 1   
    17     7    35 1   
    18     8     9 ar  
    19     8    29 ar  
    20     8    50 1   
    21     9    10 ar  
    22     9    52 1   
    23    10    11 ar  
    24    10    36 1   
    25    11    12 ar  
    26    11    37 1   
    27    12    29 ar  
    28    12    38 1   
    29    13    39 1   
    30    13    40 1   
    31    13    41 1   
    32    13    49 1   
    33    14    16 ar  
    34    14    18 ar  
    35    14    49 1   
    36    16    17 ar  
    37    16    23 ar  
    38    17    19 ar  
    39    17    42 1   
    40    18    25 ar  
    41    19    20 ar  
    42    19    31 1   
    43    20    22 ar  
    44    20    43 1   
    45    21    26 1   
    46    21    44 1   
    47    22    23 ar  
    48    22    45 1   
    49    23    24 ar  
    50    24    25 ar  
    51    24    51 1   
    52    26    46 1   
    53    26    47 1   
    54    28    48 1   
    55    29    32 1   
    56    51    53 1   
@<TRIPOS>SUBSTRUCTURE
     1 9IF         1 TEMP              0 ****  ****    0 ROOT
