@<TRIPOS>MOLECULE
9IG
   43    44     1     0     0
SMALL
bcc


@<TRIPOS>ATOM
      1 C13        222.4750   204.0640   183.3820 c3         1 9IG      -0.076400
      2 C14        222.3660   205.5870   183.3150 c3         1 9IG      -0.030100
      3 C15        222.8690   206.2500   184.5640 ca         1 9IG      -0.065300
      4 C16        224.1850   206.7060   184.6320 ca         1 9IG      -0.120000
      5 C17        224.6990   207.2950   185.7760 ca         1 9IG      -0.125000
      6 C18        223.8930   207.4440   186.8960 ca         1 9IG      -0.122000
      7 C19        222.5810   206.9990   186.8630 ca         1 9IG      -0.121000
      8 C20        222.0890   206.4090   185.7080 ca         1 9IG       0.032400
      9 C01        221.5370   199.7700   181.2970 c3         1 9IG      -0.091100
     10 C02        221.6480   201.2630   180.9980 c3         1 9IG       0.223800
     11 C03        222.6070   201.4810   179.8450 ca         1 9IG      -0.047300
     12 C04        222.1030   201.5240   178.5470 ca         1 9IG      -0.216000
     13 C05        222.9620   201.6550   177.4580 ca         1 9IG       0.136100
     14 C06        224.3380   201.7530   177.6740 ca         1 9IG      -0.163000
     15 C07        224.8310   201.7150   178.9660 ca         1 9IG      -0.101000
     16 C08        223.9770   201.5770   180.0550 ca         1 9IG      -0.141000
     17 C12        221.9550   203.4030   182.1160 c3         1 9IG       0.159800
     18 N11        222.0880   201.9610   182.1900 n7         1 9IG      -0.814200
     19 O09        222.5550   201.7020   176.1740 os         1 9IG      -0.320900
     20 CL21       220.4380   205.8600   185.7130 cl         1 9IG      -0.122400
     21 H1         221.9170   203.6920   184.2470 hc         1 9IG       0.051200
     22 H2         223.5190   203.7760   183.5360 hc         1 9IG       0.051200
     23 H3         222.9490   205.9500   182.4650 hc         1 9IG       0.053200
     24 H4         221.3290   205.8740   183.1230 hc         1 9IG       0.053200
     25 H5         224.8150   206.5960   183.7570 ha         1 9IG       0.135000
     26 H6         225.7250   207.6390   185.7920 ha         1 9IG       0.135000
     27 H7         224.2800   207.9050   187.7960 ha         1 9IG       0.136000
     28 H8         221.9430   207.1100   187.7300 ha         1 9IG       0.146000
     29 H10        221.2060   199.2220   180.4150 hc         1 9IG       0.041700
     30 H11        222.5010   199.3660   181.6080 hc         1 9IG       0.041700
     31 H12        220.6540   201.6120   180.6690 h1         1 9IG       0.021700
     32 H13        221.0310   201.4550   178.4080 ha         1 9IG       0.130000
     33 H14        225.0070   201.8610   176.8290 ha         1 9IG       0.143000
     34 H15        225.8990   201.7930   179.1270 ha         1 9IG       0.131000
     35 H16        224.3710   201.5540   181.0620 ha         1 9IG       0.150000
     36 H17        221.0730   201.6460   174.8140 h1         1 9IG       0.038700
     37 H18        220.7580   200.6440   176.2410 h1         1 9IG       0.038700
     38 H19        220.6000   202.4110   176.3400 h1         1 9IG       0.038700
     39 H20        222.5350   203.7640   181.2620 h1         1 9IG       0.032200
     40 H21        220.9140   203.7220   181.9380 h1         1 9IG       0.032200
     41 H22        221.5530   201.6230   182.9810 hn         1 9IG       0.357800
     42 H9         220.8140   199.5860   182.0940 hc         1 9IG       0.041700
     43 C10        221.1750   201.5940   175.8950 c3         1 9IG       0.126700
@<TRIPOS>BOND
     1     1     2 1   
     2     1    17 1   
     3     1    21 1   
     4     1    22 1   
     5     2     3 1   
     6     2    23 1   
     7     2    24 1   
     8     3     4 ar  
     9     3     8 ar  
    10     4     5 ar  
    11     4    25 1   
    12     5     6 ar  
    13     5    26 1   
    14     6     7 ar  
    15     6    27 1   
    16     7     8 ar  
    17     7    28 1   
    18     8    20 1   
    19     9    10 1   
    20     9    29 1   
    21     9    30 1   
    22     9    42 1   
    23    10    11 1   
    24    10    18 1   
    25    10    31 1   
    26    11    12 ar  
    27    11    16 ar  
    28    12    13 ar  
    29    12    32 1   
    30    13    14 ar  
    31    13    19 1   
    32    14    15 ar  
    33    14    33 1   
    34    15    16 ar  
    35    15    34 1   
    36    16    35 1   
    37    17    18 1   
    38    17    39 1   
    39    17    40 1   
    40    18    41 1   
    41    19    43 1   
    42    36    43 1   
    43    37    43 1   
    44    38    43 1   
@<TRIPOS>SUBSTRUCTURE
     1 9IG         1 TEMP              0 ****  ****    0 ROOT
