@<TRIPOS>MOLECULE
9IG
   43    44     1     0     0
SMALL
No Charge or Current Charge


@<TRIPOS>ATOM
      1 C13        222.4850   203.9960   183.3130 c3         1 9IG      -0.076400
      2 C14        222.4140   205.5290   183.1390 c3         1 9IG      -0.030100
      3 C15        222.8290   206.2760   184.4050 ca         1 9IG      -0.065300
      4 C16        224.1610   206.7200   184.5340 ca         1 9IG      -0.102000
      5 C17        224.5780   207.4060   185.6870 ca         1 9IG      -0.107000
      6 C18        223.6670   207.6560   186.7260 ca         1 9IG      -0.104000
      7 C19        222.3380   207.2160   186.6100 ca         1 9IG      -0.103000
      8 C20        221.9160   206.5280   185.4580 ca         1 9IG       0.124000
      9 C01        221.8080   199.4480   181.5680 c3         1 9IG      -0.091100
     10 C02        221.7840   200.9250   181.1260 c3         1 9IG       0.223800
     11 C03        222.6810   201.1700   179.9060 ca         1 9IG      -0.047300
     12 C04        222.1150   201.6100   178.6900 ca         1 9IG      -0.198000
     13 C05        222.9340   201.8420   177.5630 ca         1 9IG       0.136100
     14 C06        224.3190   201.6320   177.6560 ca         1 9IG      -0.145000
     15 C07        224.8910   201.1980   178.8630 ca         1 9IG      -0.083000
     16 C08        224.0750   200.9690   179.9820 ca         1 9IG      -0.123000
     17 C12        222.0680   203.2300   182.0430 c3         1 9IG       0.159800
     18 N11        222.1710   201.7760   182.2680 n7         1 9IG      -0.869400
     19 O09        222.4290   202.2720   176.3520 os         1 9IG      -0.344100
     20 Cl21       220.2360   205.9950   185.3710 cl         1 9IG      -0.214000
     21 H1         221.8380   203.6960   184.1460 hc         1 9IG       0.051200
     22 H2         223.5100   203.7150   183.5840 hc         1 9IG       0.051200
     23 H3         223.0640   205.8190   182.3040 hc         1 9IG       0.053200
     24 H4         221.4000   205.8160   182.8340 hc         1 9IG       0.053200
     25 H5         224.8790   206.5300   183.7380 ha         1 9IG       0.117000
     26 H6         225.6090   207.7450   185.7760 ha         1 9IG       0.117000
     27 H7         223.9900   208.1870   187.6190 ha         1 9IG       0.118000
     28 H8         221.6320   207.4060   187.4140 ha         1 9IG       0.128000
     29 H10        221.5160   198.7990   180.7340 hc         1 9IG       0.041700
     30 H11        222.8080   199.1490   181.9020 hc         1 9IG       0.041700
     31 H12        220.7480   201.1590   180.8460 h1         1 9IG       0.021700
     32 H13        221.0420   201.7670   178.6400 ha         1 9IG       0.112000
     33 H14        224.9510   201.8100   176.7900 ha         1 9IG       0.125000
     34 H15        225.9650   201.0410   178.9310 ha         1 9IG       0.113000
     35 H16        224.5250   200.6410   180.9170 ha         1 9IG       0.132000
     36 H17        220.8430   202.8530   175.1220 h1         1 9IG       0.038700
     37 H18        220.4400   201.6070   176.3210 h1         1 9IG       0.038700
     38 H19        220.6660   203.3020   176.8310 h1         1 9IG       0.038700
     39 H20        222.7180   203.5400   181.2130 h1         1 9IG       0.032200
     40 H21        221.0360   203.5040   181.7800 h1         1 9IG       0.032200
     41 H22        221.5580   201.5360   183.0550 hn         1 9IG       0.413000
     42 H9         221.1040   199.2790   182.3910 hc         1 9IG       0.041700
     43 C10        221.0250   202.5190   176.1510 c3         1 9IG       0.149900
@<TRIPOS>BOND
     1     1     2 1   
     2     1    17 1   
     3     1    21 1   
     4     1    22 1   
     5     2     3 1   
     6     2    23 1   
     7     2    24 1   
     8     3     4 ar  
     9     3     8 ar  
    10     4     5 ar  
    11     4    25 1   
    12     5     6 ar  
    13     5    26 1   
    14     6     7 ar  
    15     6    27 1   
    16     7     8 ar  
    17     7    28 1   
    18     8    20 1   
    19     9    10 1   
    20     9    29 1   
    21     9    30 1   
    22     9    42 1   
    23    10    11 1   
    24    10    18 1   
    25    10    31 1   
    26    11    12 ar  
    27    11    16 ar  
    28    12    13 ar  
    29    12    32 1   
    30    13    14 ar  
    31    13    19 1   
    32    14    15 ar  
    33    14    33 1   
    34    15    16 ar  
    35    15    34 1   
    36    16    35 1   
    37    17    18 1   
    38    17    39 1   
    39    17    40 1   
    40    18    41 1   
    41    19    43 1   
    42    36    43 1   
    43    37    43 1   
    44    38    43 1   
@<TRIPOS>SUBSTRUCTURE
     1 9IG         1 TEMP              0 ****  ****    0 ROOT
