@<TRIPOS>MOLECULE
9IH
   50    54     1     0     0
SMALL
bcc


@<TRIPOS>ATOM
      1 C1         -22.9490    13.7840    21.5040 c3         1 9IH       0.087400
      2 N4         -29.3910    10.8110    14.3400 n1         1 9IH      -0.361800
      3 C5         -23.1510    15.7220    16.7820 cx         1 9IH      -0.115900
      4 C6         -23.3540    12.1430    19.1600 cc         1 9IH       0.206800
      5 C7         -23.8150    10.9920    18.4070 ca         1 9IH      -0.120800
      6 C8         -23.2740     9.7250    18.6970 ca         1 9IH       0.115600
      7 C10        -23.7220     8.6150    17.9660 ca         1 9IH      -0.172000
      8 C16        -26.9030     9.6510    12.1380 ca         1 9IH       0.583300
      9 C17        -27.1170     9.9810    13.4780 ca         1 9IH      -0.237300
     10 C18        -28.3800    10.4370    13.9290 cg         1 9IH       0.244800
     11 C19        -24.7580    11.1060    17.3800 ca         1 9IH      -0.092000
     12 C20        -22.4360    11.9310    20.1480 cd         1 9IH      -0.112100
     13 C21        -21.8740    10.6330    20.4500 c          1 9IH       0.726700
     14 C2         -23.0900    14.5990    19.1030 c3         1 9IH       0.215500
     15 C3         -23.6150    15.6880    18.2080 cx         1 9IH      -0.162700
     16 C12        -25.1950    10.0040    16.6770 ca         1 9IH       0.087600
     17 C14        -24.8250     9.3890    13.8410 ca         1 9IH      -0.334300
     18 O1         -21.0510    10.4750    21.3410 o          1 9IH      -0.596500
     19 O          -21.9740    12.9200    20.9660 os         1 9IH      -0.277900
     20 N          -23.8530    13.3830    18.8870 nu         1 9IH      -0.763000
     21 C4         -22.6930    16.7720    17.7440 cx         1 9IH      -0.115900
     22 C          -23.1570    14.9750    20.5790 c3         1 9IH       0.392600
     23 F1         -22.2160    15.9350    20.8190 f          1 9IH      -0.232800
     24 F          -24.3560    15.5460    20.8870 f          1 9IH      -0.232800
     25 N1         -22.3180     9.5770    19.6760 n          1 9IH      -0.350000
     26 C9         -21.7670     8.2570    19.9390 c3         1 9IH       0.069300
     27 C11        -24.6770     8.7470    16.9840 ca         1 9IH      -0.083000
     28 N2         -26.1880    10.1600    15.6840 nu         1 9IH      -0.644000
     29 C13        -26.0380     9.8480    14.3850 ca         1 9IH       0.281600
     30 N3         -25.7790     9.2230    11.6420 nb         1 9IH      -0.695000
     31 C15        -24.7580     9.1030    12.5010 ca         1 9IH       0.471200
     32 H1         -22.5890    14.1280    22.4760 h1         1 9IH       0.083700
     33 H2         -23.9000    13.2680    21.6610 h1         1 9IH       0.083700
     34 H3         -23.8730    15.9930    16.0240 hc         1 9IH       0.079700
     35 H4         -22.4320    14.9750    16.4680 hc         1 9IH       0.079700
     36 H5         -23.3380     7.6270    18.1710 ha         1 9IH       0.149000
     37 H6         -25.1740    12.0650    17.1020 ha         1 9IH       0.136000
     38 H8         -22.0360    14.4300    18.8520 h1         1 9IH       0.084700
     39 H9         -24.6480    15.9710    18.3800 hc         1 9IH       0.098700
     40 H10        -23.9440     9.2740    14.4540 ha         1 9IH       0.156000
     41 H11        -21.6630    16.7400    18.0750 hc         1 9IH       0.079700
     42 H12        -23.0990    17.7700    17.6530 hc         1 9IH       0.079700
     43 H13        -21.0210     8.3370    20.7180 h1         1 9IH       0.058033
     44 H14        -22.5450     7.5700    20.2710 h1         1 9IH       0.058033
     45 H15        -21.2950     7.8530    19.0440 h1         1 9IH       0.058033
     46 H16        -25.0240     7.8690    16.4550 ha         1 9IH       0.151000
     47 H17        -27.0390    10.6200    15.9740 hn         1 9IH       0.458800
     48 H18        -23.8230     8.7570    12.0770 h4         1 9IH       0.028100
     49 H7         -24.5390    13.4580    18.1570 hn         1 9IH       0.433800
     50 CL         -28.2270     9.8140    11.0400 cl         1 9IH      -0.143000
@<TRIPOS>BOND
     1     1    19 1   
     2     1    22 1   
     3     1    32 1   
     4     1    33 1   
     5     2    10 3   
     6     3    15 1   
     7     3    21 1   
     8     3    34 1   
     9     3    35 1   
    10     4     5 1   
    11     4    12 2   
    12     4    20 1   
    13     5     6 ar  
    14     5    11 ar  
    15     6     7 ar  
    16     6    25 1   
    17     7    27 ar  
    18     7    36 1   
    19     8     9 ar  
    20     8    30 ar  
    21     8    50 1   
    22     9    10 1   
    23     9    29 ar  
    24    11    16 ar  
    25    11    37 1   
    26    12    13 1   
    27    12    19 1   
    28    13    18 2   
    29    13    25 1   
    30    14    15 1   
    31    14    20 1   
    32    14    22 1   
    33    14    38 1   
    34    15    21 1   
    35    15    39 1   
    36    16    27 ar  
    37    16    28 1   
    38    17    29 ar  
    39    17    31 ar  
    40    17    40 1   
    41    20    49 1   
    42    21    41 1   
    43    21    42 1   
    44    22    23 1   
    45    22    24 1   
    46    25    26 1   
    47    26    43 1   
    48    26    44 1   
    49    26    45 1   
    50    27    46 1   
    51    28    29 1   
    52    28    47 1   
    53    30    31 ar  
    54    31    48 1   
@<TRIPOS>SUBSTRUCTURE
     1 9IH         1 TEMP              0 ****  ****    0 ROOT
