@<TRIPOS>MOLECULE
9IH
   50    54     1     0     0
SMALL
No Charge or Current Charge


@<TRIPOS>ATOM
      1 C1         -23.6820    13.8450    21.6670 c3         1 9IH       0.110600
      2 N4         -29.4190    10.9070    14.6630 n1         1 9IH      -0.451000
      3 C5         -22.4260    15.8630    17.0190 cx         1 9IH      -0.115900
      4 C6         -23.4460    12.2040    19.2420 cc         1 9IH       0.206800
      5 C7         -23.7140    11.0830    18.3270 ca         1 9IH      -0.120800
      6 C8         -23.0660     9.8390    18.4950 ca         1 9IH       0.115600
      7 C10        -23.4400     8.7510    17.6720 ca         1 9IH      -0.154000
      8 C16        -27.5350     9.0820    12.3130 ca         1 9IH       0.518000
      9 C17        -27.3890     9.7340    13.5470 ca         1 9IH      -0.172000
     10 C18        -28.5120    10.3750    14.1590 cg         1 9IH       0.334000
     11 C19        -24.6490    11.2300    17.2690 ca         1 9IH      -0.074000
     12 C20        -22.7570    11.9040    20.4180 cd         1 9IH      -0.112100
     13 C21        -22.1140    10.5800    20.6710 c          1 9IH       0.584200
     14 C2         -23.0680    14.6790    19.2970 c3         1 9IH       0.215500
     15 C3         -23.2740    15.7910    18.2690 cx         1 9IH      -0.162700
     16 C12        -24.9510    10.1700    16.4000 ca         1 9IH       0.226000
     17 C14        -25.0720     9.0880    13.4920 ca         1 9IH      -0.251000
     18 O1         -21.5040    10.3390    21.7090 o          1 9IH      -0.521000
     19 O          -22.6760    12.8240    21.4590 os         1 9IH      -0.301100
     20 N          -23.8080    13.4880    18.8710 nu         1 9IH      -0.818200
     21 C4         -22.2600    16.9010    18.1060 cx         1 9IH      -0.115900
     22 C          -23.4350    15.0720    20.7560 c3         1 9IH       0.150000
     23 F1         -22.4380    15.8250    21.2810 f          1 9IH      -0.111500
     24 F          -24.5510    15.8410    20.7740 f          1 9IH      -0.111500
     25 N1         -22.2210     9.6320    19.6350 n          1 9IH      -0.283000
     26 C9         -21.3650     8.4170    19.7030 c3         1 9IH       0.069300
     27 C11        -24.3550     8.9210    16.6230 ca         1 9IH      -0.065000
     28 N2         -25.8920    10.3620    15.3780 nu         1 9IH      -0.976000
     29 C13        -26.1250     9.7230    14.1540 ca         1 9IH       0.420000
     30 N3         -26.5230     8.4560    11.6770 nb         1 9IH      -0.695000
     31 C15        -25.3110     8.4670    12.2640 ca         1 9IH       0.405900
     32 H1         -23.6590    14.1830    22.7100 h1         1 9IH       0.083700
     33 H2         -24.6850    13.4390    21.4810 h1         1 9IH       0.083700
     34 H3         -22.9100    16.1700    16.0940 hc         1 9IH       0.079700
     35 H4         -21.6330    15.1290    16.8940 hc         1 9IH       0.079700
     36 H5         -23.0320     7.7580    17.8330 ha         1 9IH       0.131000
     37 H6         -25.1680    12.1710    17.1160 ha         1 9IH       0.118000
     38 H8         -21.9960    14.4300    19.3000 h1         1 9IH       0.084700
     39 H9         -24.3200    16.0740    18.1620 hc         1 9IH       0.098700
     40 H10        -24.0690     9.0860    13.9030 ha         1 9IH       0.138000
     41 H11        -21.3540    16.8620    18.7070 hc         1 9IH       0.079700
     42 H12        -22.6330    17.9040    17.9120 hc         1 9IH       0.079700
     43 H13        -20.4990     8.5750    20.3570 h1         1 9IH       0.058033
     44 H14        -21.9520     7.5730    20.0860 h1         1 9IH       0.058033
     45 H15        -20.9820     8.1710    18.7050 h1         1 9IH       0.058033
     46 H16        -24.6240     8.0670    16.0070 ha         1 9IH       0.133000
     47 H17        -26.5490    11.1230    15.5640 hn         1 9IH       0.514000
     48 H18        -24.5050     7.9670    11.7280 h4         1 9IH       0.028100
     49 H7         -24.2490    13.5540    17.9560 hn         1 9IH       0.489000
     50 Cl         -29.0840     9.0230    11.4680 cl         1 9IH      -0.143000
@<TRIPOS>BOND
     1     1    19 1   
     2     1    22 1   
     3     1    32 1   
     4     1    33 1   
     5     2    10 3   
     6     3    15 1   
     7     3    21 1   
     8     3    34 1   
     9     3    35 1   
    10     4     5 1   
    11     4    12 2   
    12     4    20 1   
    13     5     6 ar  
    14     5    11 ar  
    15     6     7 ar  
    16     6    25 1   
    17     7    27 ar  
    18     7    36 1   
    19     8     9 ar  
    20     8    30 ar  
    21     8    50 1   
    22     9    10 1   
    23     9    29 ar  
    24    11    16 ar  
    25    11    37 1   
    26    12    13 1   
    27    12    19 1   
    28    13    18 2   
    29    13    25 1   
    30    14    15 1   
    31    14    20 1   
    32    14    22 1   
    33    14    38 1   
    34    15    21 1   
    35    15    39 1   
    36    16    27 ar  
    37    16    28 1   
    38    17    29 ar  
    39    17    31 ar  
    40    17    40 1   
    41    20    49 1   
    42    21    41 1   
    43    21    42 1   
    44    22    23 1   
    45    22    24 1   
    46    25    26 1   
    47    26    43 1   
    48    26    44 1   
    49    26    45 1   
    50    27    46 1   
    51    28    29 1   
    52    28    47 1   
    53    30    31 ar  
    54    31    48 1   
@<TRIPOS>SUBSTRUCTURE
     1 9IH         1 TEMP              0 ****  ****    0 ROOT
