@<TRIPOS>MOLECULE
9II
   52    55     1     0     0
SMALL
No Charge or Current Charge


@<TRIPOS>ATOM
      1 C16         -9.9460   -28.7880     2.7030 ca         1 9II      -0.090500
      2 C12        -12.8770   -37.9820    -3.3020 c3         1 9II      -0.064000
      3 C11        -11.3130   -37.1370    -1.4860 c          1 9II       0.511600
      4 C10        -11.1310   -36.0580    -0.4150 ca         1 9II       0.189500
      5 C15         -9.5620   -30.1300     2.8660 ca         1 9II      -0.118500
      6 C14         -9.7550   -30.7730     4.1030 ca         1 9II       0.106100
      7 C13        -14.1020   -37.4520    -4.0910 c          1 9II       0.715000
      8 C6          -8.5320   -34.0310     3.1890 ca         1 9II      -0.138000
      9 C9          -9.9600   -36.0750     0.3940 ca         1 9II       0.173100
     10 C1         -14.1110   -33.1990    -0.0130 c3         1 9II       0.158900
     11 C2         -11.9480   -34.1530     0.6770 ca         1 9II       0.546300
     12 C7          -8.6610   -35.0380     2.2190 ca         1 9II      -0.046000
     13 C3         -10.8100   -34.0980     1.5240 ca         1 9II      -0.027000
     14 C4         -10.6680   -33.0900     2.5050 ca         1 9II      -0.158000
     15 C5          -9.5260   -33.0520     3.3260 ca         1 9II       0.122100
     16 C8          -9.7980   -35.0770     1.3800 ca         1 9II      -0.066000
     17 N1         -12.1040   -35.1090    -0.2690 nb         1 9II      -0.712000
     18 O1         -10.4860   -38.0270    -1.6840 o          1 9II      -0.675100
     19 N2         -12.4750   -37.0500    -2.2250 ns         1 9II      -0.399900
     20 O2         -14.0220   -37.3910    -5.3090 o          1 9II      -0.721500
     21 O3         -15.0790   -37.0730    -3.4580 o          1 9II      -0.721500
     22 O5          -9.3780   -32.0840     4.2930 os         1 9II      -0.258200
     23 C17        -10.5230   -28.0550     3.7720 cp         1 9II      -0.042000
     24 C18        -10.6950   -28.7200     5.0130 ca         1 9II      -0.090500
     25 C19        -10.3120   -30.0630     5.1770 ca         1 9II      -0.118500
     26 C20        -10.9320   -26.6240     3.5970 cp         1 9II      -0.030000
     27 C21        -11.4590   -26.1590     2.3650 ca         1 9II      -0.099000
     28 C22        -11.8440   -24.8170     2.1990 ca         1 9II      -0.112500
     29 C23        -11.7090   -23.9100     3.2630 ca         1 9II      -0.111000
     30 C24        -11.1900   -24.3480     4.4910 ca         1 9II      -0.112500
     31 C25        -10.8060   -25.6900     4.6560 ca         1 9II      -0.099000
     32 H1          -9.7790   -28.3080     1.7420 ha         1 9II       0.116000
     33 H2         -13.1370   -38.9520    -2.8620 h1         1 9II       0.039200
     34 H3         -12.0360   -38.1190    -3.9940 h1         1 9II       0.039200
     35 H4          -9.1090   -30.6650     2.0340 ha         1 9II       0.131000
     36 H5          -7.6570   -34.0060     3.8330 ha         1 9II       0.122000
     37 H6         -14.7690   -32.3630     0.2560 h1         1 9II       0.043700
     38 H7         -13.8420   -33.0930    -1.0720 h1         1 9II       0.043700
     39 H8         -14.6780   -34.1310     0.1120 h1         1 9II       0.043700
     40 H9          -7.8750   -35.7850     2.1260 ha         1 9II       0.136000
     41 H10        -11.4430   -32.3380     2.6350 ha         1 9II       0.140000
     42 H11        -13.0990   -36.2870    -1.9760 hn         1 9II       0.322500
     43 H13         -9.3260   -37.6300    -0.5200 ho         1 9II       0.540000
     44 H14        -11.1410   -28.1950     5.8540 ha         1 9II       0.116000
     45 H15        -10.4530   -30.5560     6.1360 ha         1 9II       0.131000
     46 H16        -11.5850   -26.8470     1.5320 ha         1 9II       0.116000
     47 H17        -12.2500   -24.4810     1.2470 ha         1 9II       0.111000
     48 H18        -12.0070   -22.8720     3.1350 ha         1 9II       0.109000
     49 H19        -11.0810   -23.6460     5.3160 ha         1 9II       0.111000
     50 H20        -10.3940   -26.0040     5.6120 ha         1 9II       0.116000
     51 O6         -12.9340   -33.1980     0.8190 os         1 9II      -0.473300
     52 O4          -9.0000   -37.0450     0.2210 oh         1 9II      -0.567100
@<TRIPOS>BOND
     1     1     5 ar  
     2     1    23 ar  
     3     1    32 1   
     4     2     7 1   
     5     2    19 1   
     6     2    33 1   
     7     2    34 1   
     8     3     4 1   
     9     3    18 2   
    10     3    19 1   
    11     4     9 ar  
    12     4    17 ar  
    13     5     6 ar  
    14     5    35 1   
    15     6    22 1   
    16     6    25 ar  
    17     7    20 1   
    18     7    21 1   
    19     8    12 ar  
    20     8    15 ar  
    21     8    36 1   
    22     9    16 ar  
    23     9    52 1   
    24    10    37 1   
    25    10    38 1   
    26    10    39 1   
    27    10    51 1   
    28    11    13 ar  
    29    11    17 ar  
    30    11    51 1   
    31    12    16 ar  
    32    12    40 1   
    33    13    14 ar  
    34    13    16 ar  
    35    14    15 ar  
    36    14    41 1   
    37    15    22 1   
    38    19    42 1   
    39    23    24 ar  
    40    23    26 1   
    41    24    25 ar  
    42    24    44 1   
    43    25    45 1   
    44    26    27 ar  
    45    26    31 ar  
    46    27    28 ar  
    47    27    46 1   
    48    28    29 ar  
    49    28    47 1   
    50    29    30 ar  
    51    29    48 1   
    52    30    31 ar  
    53    30    49 1   
    54    31    50 1   
    55    43    52 1   
@<TRIPOS>SUBSTRUCTURE
     1 9II         1 TEMP              0 ****  ****    0 ROOT
