@<TRIPOS>MOLECULE
9II
   52    55     1     0     0
SMALL
bcc


@<TRIPOS>ATOM
      1 C16         -9.5430   -28.5930     2.6150 ca         1 9II      -0.108500
      2 C12        -13.6070   -37.7440    -2.6480 c3         1 9II      -0.064000
      3 C11        -11.8630   -37.0180    -1.1120 c          1 9II       0.578600
      4 C10        -11.3830   -35.9370    -0.2290 ca         1 9II       0.254800
      5 C15         -8.9110   -29.8250     2.6530 ca         1 9II      -0.136500
      6 C14         -9.1650   -30.6880     3.7090 ca         1 9II       0.106100
      7 C13        -13.1160   -37.4840    -4.0970 c          1 9II       0.925600
      8 C6          -8.1710   -34.0250     2.8110 ca         1 9II      -0.156000
      9 C9         -10.1780   -36.0760     0.4230 ca         1 9II       0.107800
     10 C1         -13.7660   -32.7080     0.0800 c3         1 9II       0.135700
     11 C2         -11.7910   -33.8610     0.6570 ca         1 9II       0.611600
     12 C7          -8.5410   -35.0660     2.0040 ca         1 9II      -0.064000
     13 C3         -10.5640   -33.8770     1.4040 ca         1 9II      -0.092300
     14 C4         -10.1810   -32.8120     2.2330 ca         1 9II      -0.176000
     15 C5          -8.9940   -32.8890     2.9240 ca         1 9II       0.122100
     16 C8          -9.7480   -35.0170     1.2780 ca         1 9II      -0.066000
     17 N1         -12.1640   -34.8320    -0.0980 nb         1 9II      -0.712000
     18 O1         -11.1620   -38.0320    -1.2950 o          1 9II      -0.675100
     19 N2         -13.0630   -36.8570    -1.6540 ns         1 9II      -0.466900
     20 O2         -13.5350   -38.3100    -4.9300 o          1 9II      -0.826800
     21 O3         -12.3890   -36.4970    -4.2900 o          1 9II      -0.826800
     22 O5          -8.5460   -31.9150     3.7550 os         1 9II      -0.258200
     23 C17        -10.4310   -28.2050     3.6190 cp         1 9II      -0.042000
     24 C18        -10.6520   -29.0840     4.6800 ca         1 9II      -0.108500
     25 C19        -10.0290   -30.3220     4.7270 ca         1 9II      -0.136500
     26 C20        -11.1290   -26.9050     3.5520 cp         1 9II      -0.030000
     27 C21        -11.5890   -26.4090     2.3300 ca         1 9II      -0.117000
     28 C22        -12.2560   -25.1950     2.2620 ca         1 9II      -0.130500
     29 C23        -12.4770   -24.4530     3.4140 ca         1 9II      -0.129000
     30 C24        -12.0250   -24.9350     4.6350 ca         1 9II      -0.130500
     31 C25        -11.3560   -26.1490     4.7030 ca         1 9II      -0.117000
     32 H1          -9.3280   -27.9210     1.7930 ha         1 9II       0.134000
     33 H2         -14.6940   -37.6440    -2.6230 h1         1 9II       0.039200
     34 H3         -13.3890   -38.7770    -2.3730 h1         1 9II       0.039200
     35 H4          -8.2250   -30.1110     1.8650 ha         1 9II       0.149000
     36 H5          -7.2430   -34.0640     3.3670 ha         1 9II       0.140000
     37 H6         -14.2100   -31.7470     0.3240 h1         1 9II       0.043700
     38 H7         -13.6100   -32.7710    -0.9990 h1         1 9II       0.043700
     39 H8         -14.4440   -33.5080     0.3820 h1         1 9II       0.043700
     40 H9          -7.8960   -35.9300     1.9250 ha         1 9II       0.154000
     41 H10        -10.8230   -31.9480     2.3210 ha         1 9II       0.158000
     42 H11        -13.5060   -35.9630    -1.5020 hn         1 9II       0.322500
     43 H13         -9.8750   -37.7470    -0.3400 ho         1 9II       0.501000
     44 H14        -11.3450   -28.8190     5.4680 ha         1 9II       0.134000
     45 H15        -10.2260   -31.0050     5.5440 ha         1 9II       0.149000
     46 H16        -11.4450   -26.9860     1.4250 ha         1 9II       0.134000
     47 H17        -12.6110   -24.8320     1.3060 ha         1 9II       0.129000
     48 H18        -13.0000   -23.5060     3.3620 ha         1 9II       0.127000
     49 H19        -12.1860   -24.3620     5.5390 ha         1 9II       0.129000
     50 H20        -10.9920   -26.5020     5.6610 ha         1 9II       0.134000
     51 O6         -12.5390   -32.7640     0.7910 os         1 9II      -0.450100
     52 O4          -9.3990   -37.1460     0.2980 oh         1 9II      -0.528100
@<TRIPOS>BOND
     1     1     5 ar  
     2     1    23 ar  
     3     1    32 1   
     4     2     7 1   
     5     2    19 1   
     6     2    33 1   
     7     2    34 1   
     8     3     4 1   
     9     3    18 2   
    10     3    19 1   
    11     4     9 ar  
    12     4    17 ar  
    13     5     6 ar  
    14     5    35 1   
    15     6    22 1   
    16     6    25 ar  
    17     7    20 1   
    18     7    21 1   
    19     8    12 ar  
    20     8    15 ar  
    21     8    36 1   
    22     9    16 ar  
    23     9    52 1   
    24    10    37 1   
    25    10    38 1   
    26    10    39 1   
    27    10    51 1   
    28    11    13 ar  
    29    11    17 ar  
    30    11    51 1   
    31    12    16 ar  
    32    12    40 1   
    33    13    14 ar  
    34    13    16 ar  
    35    14    15 ar  
    36    14    41 1   
    37    15    22 1   
    38    19    42 1   
    39    23    24 ar  
    40    23    26 1   
    41    24    25 ar  
    42    24    44 1   
    43    25    45 1   
    44    26    27 ar  
    45    26    31 ar  
    46    27    28 ar  
    47    27    46 1   
    48    28    29 ar  
    49    28    47 1   
    50    29    30 ar  
    51    29    48 1   
    52    30    31 ar  
    53    30    49 1   
    54    31    50 1   
    55    43    52 1   
@<TRIPOS>SUBSTRUCTURE
     1 9II         1 TEMP              0 ****  ****    0 ROOT
