@<TRIPOS>MOLECULE
9IJ
   23    23     1     0     0
SMALL
abcg2


@<TRIPOS>ATOM
      1 N            9.2750     0.1040    -7.2660 n8         1 9IJ      -0.973200
      2 CA           9.6240     0.6190    -8.5840 c3         1 9IJ       0.025500
      3 C            8.6140     0.1350    -9.6590 c          1 9IJ       0.715000
      4 CB          11.0240     0.1160    -8.9770 c3         1 9IJ      -0.035100
      5 CG          12.0760     0.5160    -7.9870 ca         1 9IJ      -0.001300
      6 CD1         12.6190     1.7980    -8.0150 ca         1 9IJ      -0.127000
      7 CD2         12.5200    -0.3480    -6.9770 ca         1 9IJ      -0.015000
      8 CE1         13.5640     2.2050    -7.0870 ca         1 9IJ      -0.102000
      9 CE2         13.4740     0.0550    -6.0380 ca         1 9IJ      -0.086000
     10 CZ          13.9950     1.3330    -6.0930 ca         1 9IJ      -0.145000
     11 C01         12.0150    -1.6820    -6.8900 cg         1 9IJ       0.344000
     12 N01         11.6360    -2.7670    -6.7920 n1         1 9IJ      -0.466000
     13 O            8.3480    -1.0820    -9.6640 o          1 9IJ      -0.717000
     14 H            9.8020     0.6030    -6.5580 hn         1 9IJ       0.368000
     15 H2           8.3030     0.3090    -7.0680 hn         1 9IJ       0.368000
     16 HA           9.6500     1.7180    -8.6140 h1         1 9IJ       0.001700
     17 HB2         10.9850    -0.9690    -9.0820 hc         1 9IJ       0.066200
     18 HB3         11.2800     0.5290    -9.9560 hc         1 9IJ       0.066200
     19 HD1         12.2950     2.4860    -8.7870 ha         1 9IJ       0.121000
     20 HE1         13.9710     3.2060    -7.1390 ha         1 9IJ       0.100000
     21 HE2         13.8010    -0.6370    -5.2730 ha         1 9IJ       0.109000
     22 HZ          14.7350     1.6470    -5.3700 ha         1 9IJ       0.101000
     23 OXT          8.1800     1.0040   -10.4400 o          1 9IJ      -0.717000
@<TRIPOS>BOND
     1     1     2 1   
     2     1    14 1   
     3     1    15 1   
     4     2     3 1   
     5     2     4 1   
     6     2    16 1   
     7     3    13 1   
     8     3    23 1   
     9     4     5 1   
    10     4    17 1   
    11     4    18 1   
    12     5     6 ar  
    13     5     7 ar  
    14     6     8 ar  
    15     6    19 1   
    16     7     9 ar  
    17     7    11 1   
    18     8    10 ar  
    19     8    20 1   
    20     9    10 ar  
    21     9    21 1   
    22    10    22 1   
    23    11    12 3   
@<TRIPOS>SUBSTRUCTURE
     1 9IJ         1 TEMP              0 ****  ****    0 ROOT
