@<TRIPOS>MOLECULE
9IJ
   23    23     1     0     0
SMALL
No Charge or Current Charge


@<TRIPOS>ATOM
      1 N            9.1340     0.1700    -7.2550 n8         1 9IJ      -0.973200
      2 CA           9.5920     0.5560    -8.6370 c3         1 9IJ       0.025500
      3 C            8.5690     0.2640    -9.8190 c          1 9IJ       0.715000
      4 CB          11.0060    -0.0210    -8.9280 c3         1 9IJ      -0.035100
      5 CG          12.0700     0.4270    -7.9130 ca         1 9IJ      -0.001300
      6 CD1         12.5560     1.7480    -8.0050 ca         1 9IJ      -0.127000
      7 CD2         12.5830    -0.4260    -6.8980 ca         1 9IJ      -0.015000
      8 CE1         13.5300     2.2220    -7.1120 ca         1 9IJ      -0.102000
      9 CE2         13.5620     0.0600    -6.0060 ca         1 9IJ      -0.086000
     10 CZ          14.0330     1.3790    -6.1120 ca         1 9IJ      -0.145000
     11 C01         12.1370    -1.7870    -6.7420 cg         1 9IJ       0.344000
     12 N01         11.7930    -2.8960    -6.6100 n1         1 9IJ      -0.466000
     13 O            8.7240    -0.7300   -10.5180 o          1 9IJ      -0.717000
     14 H            9.8030     0.5320    -6.5670 hn         1 9IJ       0.368000
     15 H2           8.2620     0.6700    -7.0410 hn         1 9IJ       0.368000
     16 HA           9.7030     1.6490    -8.6100 h1         1 9IJ       0.001700
     17 HB2         10.9440    -1.1120    -9.0050 hc         1 9IJ       0.066200
     18 HB3         11.3120     0.3150    -9.9260 hc         1 9IJ       0.066200
     19 HD1         12.1750     2.4130    -8.7770 ha         1 9IJ       0.121000
     20 HE1         13.8940     3.2440    -7.1960 ha         1 9IJ       0.100000
     21 HE2         13.9600    -0.5860    -5.2250 ha         1 9IJ       0.109000
     22 HZ          14.7870     1.7450    -5.4190 ha         1 9IJ       0.101000
     23 OXT          7.6570     1.0630    -9.9950 o          1 9IJ      -0.717000
@<TRIPOS>BOND
     1     1     2 1   
     2     1    14 1   
     3     1    15 1   
     4     2     3 1   
     5     2     4 1   
     6     2    16 1   
     7     3    13 1   
     8     3    23 1   
     9     4     5 1   
    10     4    17 1   
    11     4    18 1   
    12     5     6 ar  
    13     5     7 ar  
    14     6     8 ar  
    15     6    19 1   
    16     7     9 ar  
    17     7    11 1   
    18     8    10 ar  
    19     8    20 1   
    20     9    10 ar  
    21     9    21 1   
    22    10    22 1   
    23    11    12 3   
@<TRIPOS>SUBSTRUCTURE
     1 9IJ         1 TEMP              0 ****  ****    0 ROOT
