@<TRIPOS>MOLECULE
9IK
   37    40     1     0     0
SMALL
No Charge or Current Charge


@<TRIPOS>ATOM
      1 N1          22.6200   -26.9440    43.7880 nb         1 9IK      -0.284000
      2 C2          17.4290   -23.9710    37.1470 ca         1 9IK      -0.117000
      3 N3          25.3780   -29.9330    44.4820 na         1 9IK      -0.314400
      4 C4          19.2540   -25.6080    39.7880 ca         1 9IK       0.119100
      5 C5          19.2340   -25.8220    41.1740 ca         1 9IK      -0.141500
      6 C6          20.2700   -26.5470    41.7930 ca         1 9IK      -0.100000
      7 C17         19.6920   -22.3050    37.0180 ca         1 9IK      -0.102500
      8 C           18.7190   -22.2500    36.0040 ca         1 9IK      -0.111000
      9 C16         19.5350   -23.1950    38.0950 ca         1 9IK      -0.117000
     10 C3          18.4060   -24.0380    38.1540 ca         1 9IK       0.096100
     11 C1          17.5860   -23.0810    36.0690 ca         1 9IK      -0.102500
     12 O           18.2210   -24.9080    39.2050 os         1 9IK      -0.255200
     13 C15         20.2980   -26.1470    39.0130 ca         1 9IK      -0.141500
     14 C14         21.3320   -26.8720    39.6340 ca         1 9IK      -0.100000
     15 C7          21.3360   -27.0670    41.0290 ca         1 9IK       0.267000
     16 N           22.3810   -27.8060    41.6010 nu         1 9IK      -0.931900
     17 C8          22.9510   -27.8700    42.8680 ca         1 9IK       0.434900
     18 C13         23.9030   -28.8520    43.1780 ca         1 9IK      -0.257800
     19 C12         24.4460   -29.9330    42.4050 cc         1 9IK      -0.208200
     20 C11         25.3510   -30.5870    43.2240 cd         1 9IK      -0.175100
     21 C10         24.4810   -28.8780    44.4220 ca         1 9IK       0.144500
     22 N2          24.1540   -27.9680    45.3580 nb         1 9IK      -0.223000
     23 C9          23.2350   -27.0430    44.9900 ca         1 9IK       0.176900
     24 H2          25.9440   -30.1850    45.2860 hn         1 9IK       0.363000
     25 H3          18.4150   -25.4260    41.7700 ha         1 9IK       0.129000
     26 H4          20.2250   -26.7160    42.8640 ha         1 9IK       0.126500
     27 H5          20.5640   -21.6570    36.9700 ha         1 9IK       0.116500
     28 H6          18.8400   -21.5610    35.1710 ha         1 9IK       0.116000
     29 H7          20.2850   -23.2260    38.8820 ha         1 9IK       0.129000
     30 H8          16.8310   -23.0340    35.2870 ha         1 9IK       0.116500
     31 H9          20.3080   -26.0110    37.9340 ha         1 9IK       0.129000
     32 H10         22.1360   -27.2800    39.0270 ha         1 9IK       0.126500
     33 H11         22.8910   -28.3800    40.9340 hn         1 9IK       0.499000
     34 H12         24.2070   -30.2130    41.3790 ha         1 9IK       0.203000
     35 H13         25.9690   -31.4580    43.0100 h4         1 9IK       0.218000
     36 H14         22.9660   -26.2990    45.7380 h5         1 9IK       0.046100
     37 H1          16.5520   -24.6130    37.2000 ha         1 9IK       0.129000
@<TRIPOS>BOND
     1     1    17 ar  
     2     1    23 ar  
     3     2    10 ar  
     4     2    11 ar  
     5     2    37 1   
     6     3    20 1   
     7     3    21 1   
     8     3    24 1   
     9     4     5 ar  
    10     4    12 1   
    11     4    13 ar  
    12     5     6 ar  
    13     5    25 1   
    14     6    15 ar  
    15     6    26 1   
    16     7     8 ar  
    17     7     9 ar  
    18     7    27 1   
    19     8    11 ar  
    20     8    28 1   
    21     9    10 ar  
    22     9    29 1   
    23    10    12 1   
    24    11    30 1   
    25    13    14 ar  
    26    13    31 1   
    27    14    15 ar  
    28    14    32 1   
    29    15    16 1   
    30    16    17 1   
    31    16    33 1   
    32    17    18 ar  
    33    18    19 1   
    34    18    21 ar  
    35    19    20 2   
    36    19    34 1   
    37    20    35 1   
    38    21    22 ar  
    39    22    23 ar  
    40    23    36 1   
@<TRIPOS>SUBSTRUCTURE
     1 9IK         1 TEMP              0 ****  ****    0 ROOT
