@<TRIPOS>MOLECULE
9IK
   37    40     1     0     0
SMALL
bcc


@<TRIPOS>ATOM
      1 N1          22.5090   -27.1720    43.7260 nb         1 9IK      -0.810000
      2 C2          17.8890   -24.3880    37.3590 ca         1 9IK      -0.135000
      3 N3          25.2240   -30.0440    44.3400 na         1 9IK      -0.264100
      4 C4          19.4800   -25.1060    40.0580 ca         1 9IK       0.119100
      5 C5          19.4070   -25.5120    41.3860 ca         1 9IK      -0.159500
      6 C6          20.3150   -26.4240    41.8970 ca         1 9IK      -0.118000
      7 C17         19.3200   -22.0720    36.7950 ca         1 9IK      -0.120500
      8 C           18.6210   -22.7180    35.7830 ca         1 9IK      -0.129000
      9 C16         19.3120   -22.5790    38.0870 ca         1 9IK      -0.135000
     10 C3          18.5920   -23.7330    38.3590 ca         1 9IK       0.096100
     11 C1          17.9050   -23.8730    36.0690 ca         1 9IK      -0.120500
     12 O           18.5410   -24.2080    39.6450 os         1 9IK      -0.255200
     13 C15         20.4740   -25.6240    39.2380 ca         1 9IK      -0.159500
     14 C14         21.3900   -26.5250    39.7600 ca         1 9IK      -0.118000
     15 C7          21.3300   -26.9370    41.0880 ca         1 9IK       0.128600
     16 N           22.2620   -27.8880    41.5260 nu         1 9IK      -0.738300
     17 C8          22.8370   -28.0070    42.7470 ca         1 9IK       0.763200
     18 C13         23.7930   -29.0140    42.9860 ca         1 9IK      -0.388400
     19 C12         24.4140   -30.0720    42.2550 cc         1 9IK      -0.158200
     20 C11         25.2800   -30.6720    43.1210 cd         1 9IK      -0.125100
     21 C10         24.3270   -29.0340    44.2810 ca         1 9IK       0.472800
     22 N2          24.0010   -28.2000    45.2730 nb         1 9IK      -0.749000
     23 C9          23.0980   -27.3140    44.9140 ca         1 9IK       0.702900
     24 H2          25.7660   -30.2940    45.1510 hn         1 9IK       0.312700
     25 H3          18.6270   -25.1190    42.0250 ha         1 9IK       0.147000
     26 H4          20.2260   -26.7310    42.9270 ha         1 9IK       0.144500
     27 H5          19.8770   -21.1700    36.5790 ha         1 9IK       0.134500
     28 H6          18.6310   -22.3200    34.7780 ha         1 9IK       0.134000
     29 H7          19.8540   -22.0780    38.8810 ha         1 9IK       0.147000
     30 H8          17.3550   -24.3790    35.2860 ha         1 9IK       0.134500
     31 H9          20.5580   -25.3340    38.1990 ha         1 9IK       0.147000
     32 H10         22.1670   -26.9140    39.1120 ha         1 9IK       0.144500
     33 H11         22.6520   -28.4690    40.8000 hn         1 9IK       0.443800
     34 H12         24.2480   -30.3580    41.2290 ha         1 9IK       0.153000
     35 H13         25.9410   -31.5090    42.9660 h4         1 9IK       0.168000
     36 H14         22.7890   -26.6040    45.6750 h5         1 9IK       0.046100
     37 H1          17.3320   -25.2880    37.5880 ha         1 9IK       0.147000
@<TRIPOS>BOND
     1     1    17 ar  
     2     1    23 ar  
     3     2    10 ar  
     4     2    11 ar  
     5     2    37 1   
     6     3    20 1   
     7     3    21 1   
     8     3    24 1   
     9     4     5 ar  
    10     4    12 1   
    11     4    13 ar  
    12     5     6 ar  
    13     5    25 1   
    14     6    15 ar  
    15     6    26 1   
    16     7     8 ar  
    17     7     9 ar  
    18     7    27 1   
    19     8    11 ar  
    20     8    28 1   
    21     9    10 ar  
    22     9    29 1   
    23    10    12 1   
    24    11    30 1   
    25    13    14 ar  
    26    13    31 1   
    27    14    15 ar  
    28    14    32 1   
    29    15    16 1   
    30    16    17 1   
    31    16    33 1   
    32    17    18 ar  
    33    18    19 1   
    34    18    21 ar  
    35    19    20 2   
    36    19    34 1   
    37    20    35 1   
    38    21    22 ar  
    39    22    23 ar  
    40    23    36 1   
@<TRIPOS>SUBSTRUCTURE
     1 9IK         1 TEMP              0 ****  ****    0 ROOT
