@<TRIPOS>MOLECULE
9IL
   60    63     1     0     0
SMALL
abcg2


@<TRIPOS>ATOM
      1 N1          34.5260   -12.7550    13.4080 nb         1 9IL      -0.692000
      2 C2          33.5310   -12.3200    14.0990 ca         1 9IL       0.557300
      3 C4          32.4250   -10.5860    15.4940 ca         1 9IL      -0.142000
      4 C5          32.4740    -9.3410    16.0680 ca         1 9IL       0.112100
      5 C6          33.6030    -8.5190    15.8970 ca         1 9IL      -0.118000
      6 C7          34.6720    -8.9590    15.1680 ca         1 9IL      -0.086000
      7 C8          34.6690   -10.2410    14.5760 ca         1 9IL      -0.080000
      8 C9          35.7620   -10.7570    13.8140 ca         1 9IL       0.091100
      9 C10         35.6430   -12.0010    13.2470 ca         1 9IL       0.309500
     10 C13         39.8590   -12.6630    11.7880 c          1 9IL       0.714000
     11 C14         30.4410    -9.6050    17.2340 ca         1 9IL       0.120100
     12 C17         28.3160   -11.0860    18.1690 ca         1 9IL      -0.168600
     13 C19         29.2440    -9.5680    16.5260 ca         1 9IL      -0.085300
     14 C20         25.7960   -11.4850    18.4570 ca         1 9IL      -0.164600
     15 C21         24.8050   -12.4500    18.2750 ca         1 9IL      -0.066500
     16 C22         23.4820   -12.0720    18.1180 ca         1 9IL      -0.124500
     17 C23         23.1310   -10.7280    18.1740 ca         1 9IL      -0.091000
     18 C24         24.1080    -9.7640    18.3790 ca         1 9IL      -0.124500
     19 C26         29.1080    -8.7420    15.2820 c3         1 9IL      -0.045300
     20 O6          32.4310   -13.0600    14.2530 os         1 9IL      -0.474300
     21 C3          33.5210   -11.0410    14.7400 ca         1 9IL      -0.044000
     22 C11         36.7240   -12.7010    12.4720 c          1 9IL       0.518600
     23 O1          36.8760   -13.9090    12.6030 o          1 9IL      -0.592100
     24 N2          37.4340   -11.9650    11.6090 ns         1 9IL      -0.445900
     25 C12         38.5850   -12.4920    10.9210 c3         1 9IL      -0.052000
     26 O2          40.8040   -13.2210    11.1970 o          1 9IL      -0.727000
     27 O3          39.8330   -12.2260    12.9500 o          1 9IL      -0.727000
     28 O4          36.8910   -10.0460    13.6290 oh         1 9IL      -0.508100
     29 O5          31.4700    -8.8050    16.8070 os         1 9IL      -0.263200
     30 C15         30.6200   -10.3720    18.3860 ca         1 9IL      -0.085300
     31 C16         29.5410   -11.1200    18.8320 ca         1 9IL      -0.066500
     32 C18         28.1800   -10.3130    17.0200 ca         1 9IL      -0.066500
     33 C25         25.4370   -10.1380    18.5090 ca         1 9IL      -0.066500
     34 C27         31.9280   -10.3770    19.1190 c3         1 9IL      -0.045300
     35 C28         27.2000   -11.9270    18.6780 c          1 9IL       0.595300
     36 O29         27.4280   -12.9620    19.2720 o          1 9IL      -0.517100
     37 C1          32.4090   -14.3470    13.6540 c3         1 9IL       0.159900
     38 H1          31.5570   -11.2210    15.6110 ha         1 9IL       0.141000
     39 H2          33.6170    -7.5360    16.3480 ha         1 9IL       0.123000
     40 H3          35.5130    -8.2870    15.0590 ha         1 9IL       0.114000
     41 H4          25.0730   -13.4980    18.2380 ha         1 9IL       0.126000
     42 H5          22.7220   -12.8250    17.9570 ha         1 9IL       0.114500
     43 H6          22.0950   -10.4340    18.0610 ha         1 9IL       0.111000
     44 H7          23.8360    -8.7180    18.4370 ha         1 9IL       0.114500
     45 H8          29.2920    -7.6850    15.4800 hc         1 9IL       0.050367
     46 H9          29.8130    -9.0530    14.5090 hc         1 9IL       0.050367
     47 H10         28.1040    -8.8330    14.8700 hc         1 9IL       0.050367
     48 H11         37.2970   -10.9690    11.5900 hn         1 9IL       0.300500
     49 H12         38.8140   -11.8080    10.1010 h1         1 9IL       0.032700
     50 H13         38.3350   -13.4490    10.4590 h1         1 9IL       0.032700
     51 H15         37.0040    -9.3580    14.2940 ho         1 9IL       0.464000
     52 H16         29.6520   -11.7220    19.7260 ha         1 9IL       0.126000
     53 H17         27.2440   -10.3010    16.4770 ha         1 9IL       0.126000
     54 H18         26.1890    -9.3780    18.6780 ha         1 9IL       0.126000
     55 H19         32.2600    -9.3660    19.3600 hc         1 9IL       0.050367
     56 H20         31.8420   -10.9320    20.0510 hc         1 9IL       0.050367
     57 H21         32.7190   -10.8450    18.5300 hc         1 9IL       0.050367
     58 H22         31.4420   -14.7760    13.9040 h1         1 9IL       0.046033
     59 H23         32.5100   -14.2890    12.5690 h1         1 9IL       0.046033
     60 H24         33.2010   -14.9870    14.0440 h1         1 9IL       0.046033
@<TRIPOS>BOND
     1     1     2 ar  
     2     1     9 ar  
     3     2    20 1   
     4     2    21 ar  
     5     3     4 ar  
     6     3    21 ar  
     7     3    38 1   
     8     4     5 ar  
     9     4    29 1   
    10     5     6 ar  
    11     5    39 1   
    12     6     7 ar  
    13     6    40 1   
    14     7     8 ar  
    15     7    21 ar  
    16     8     9 ar  
    17     8    28 1   
    18     9    22 1   
    19    10    25 1   
    20    10    26 1   
    21    10    27 1   
    22    11    13 ar  
    23    11    29 1   
    24    11    30 ar  
    25    12    31 ar  
    26    12    32 ar  
    27    12    35 1   
    28    13    19 1   
    29    13    32 ar  
    30    14    15 ar  
    31    14    33 ar  
    32    14    35 1   
    33    15    16 ar  
    34    15    41 1   
    35    16    17 ar  
    36    16    42 1   
    37    17    18 ar  
    38    17    43 1   
    39    18    33 ar  
    40    18    44 1   
    41    19    45 1   
    42    19    46 1   
    43    19    47 1   
    44    20    37 1   
    45    22    23 2   
    46    22    24 1   
    47    24    25 1   
    48    24    48 1   
    49    25    49 1   
    50    25    50 1   
    51    28    51 1   
    52    30    31 ar  
    53    30    34 1   
    54    31    52 1   
    55    32    53 1   
    56    33    54 1   
    57    34    55 1   
    58    34    56 1   
    59    34    57 1   
    60    35    36 2   
    61    37    58 1   
    62    37    59 1   
    63    37    60 1   
@<TRIPOS>SUBSTRUCTURE
     1 9IL         1 TEMP              0 ****  ****    0 ROOT
