@<TRIPOS>MOLECULE
9IL
   60    63     1     0     0
SMALL
No Charge or Current Charge


@<TRIPOS>ATOM
      1 N1          34.4360   -12.9200    13.3760 nb         1 9IL      -0.692000
      2 C2          33.4480   -12.4190    14.1440 ca         1 9IL       0.557300
      3 C4          32.4750   -10.6500    15.5550 ca         1 9IL      -0.142000
      4 C5          32.5720    -9.3820    16.1580 ca         1 9IL       0.112100
      5 C6          33.7190    -8.6060    15.9580 ca         1 9IL      -0.118000
      6 C7          34.7740    -9.0860    15.1650 ca         1 9IL      -0.086000
      7 C8          34.6920   -10.3620    14.5550 ca         1 9IL      -0.080000
      8 C9          35.7340   -10.8880    13.7470 ca         1 9IL       0.091100
      9 C10         35.5730   -12.1900    13.1620 ca         1 9IL       0.309500
     10 C13         40.1030   -11.6500    11.0910 c          1 9IL       0.714000
     11 C14         30.4810    -9.6190    17.3490 ca         1 9IL       0.120100
     12 C17         28.2610   -11.1580    18.1660 ca         1 9IL      -0.168600
     13 C19         29.2650    -9.5230    16.6410 ca         1 9IL      -0.085300
     14 C20         25.6830   -11.4770    18.4190 ca         1 9IL      -0.164600
     15 C21         24.6170   -12.3740    18.1890 ca         1 9IL      -0.066500
     16 C22         23.3040   -11.8970    18.0290 ca         1 9IL      -0.124500
     17 C23         23.0400   -10.5200    18.1090 ca         1 9IL      -0.091000
     18 C24         24.0900    -9.6200    18.3560 ca         1 9IL      -0.124500
     19 C26         29.1410    -8.6030    15.4320 c3         1 9IL      -0.045300
     20 O6          32.3130   -13.1820    14.3400 os         1 9IL      -0.474300
     21 C3          33.5310   -11.1460    14.7540 ca         1 9IL      -0.044000
     22 C11         36.6480   -12.8620    12.2620 c          1 9IL       0.518600
     23 O1          36.4910   -13.9790    11.7700 o          1 9IL      -0.592100
     24 N2          37.8240   -12.1750    12.0050 ns         1 9IL      -0.445900
     25 C12         38.9400   -12.6750    11.1710 c3         1 9IL      -0.052000
     26 O2          40.9750   -11.6970    11.9470 o          1 9IL      -0.727000
     27 O3          40.0780   -10.8160    10.1980 o          1 9IL      -0.727000
     28 O4          36.8680   -10.1340    13.5470 oh         1 9IL      -0.508100
     29 O5          31.5620    -8.8680    16.9440 os         1 9IL      -0.263200
     30 C15         30.5990   -10.4830    18.4590 ca         1 9IL      -0.085300
     31 C16         29.4890   -11.2530    18.8550 ca         1 9IL      -0.066500
     32 C18         28.1640   -10.2990    17.0500 ca         1 9IL      -0.066500
     33 C25         25.4030   -10.0940    18.5150 ca         1 9IL      -0.066500
     34 C27         31.9120   -10.5960    19.2280 c3         1 9IL      -0.045300
     35 C28         27.0870   -12.0070    18.6030 c          1 9IL       0.595300
     36 O29         27.2730   -13.1130    19.1000 o          1 9IL      -0.517100
     37 C1          32.1700   -14.4870    13.7460 c3         1 9IL       0.159900
     38 H1          31.5820   -11.2520    15.7030 ha         1 9IL       0.141000
     39 H2          33.7930    -7.6250    16.4220 ha         1 9IL       0.123000
     40 H3          35.6440    -8.4470    15.0410 ha         1 9IL       0.114000
     41 H4          24.8050   -13.4440    18.1240 ha         1 9IL       0.126000
     42 H5          22.4910   -12.5950    17.8450 ha         1 9IL       0.114500
     43 H6          22.0240   -10.1520    17.9870 ha         1 9IL       0.111000
     44 H7          23.8850    -8.5550    18.4290 ha         1 9IL       0.114500
     45 H8          29.4090    -7.5720    15.6930 hc         1 9IL       0.050367
     46 H9          29.8080    -8.9280    14.6240 hc         1 9IL       0.050367
     47 H10         28.1210    -8.5860    15.0320 hc         1 9IL       0.050367
     48 H11         37.9110   -11.2560    12.4310 hn         1 9IL       0.300500
     49 H12         38.5720   -12.8760    10.1570 h1         1 9IL       0.032700
     50 H13         39.3210   -13.6120    11.5990 h1         1 9IL       0.032700
     51 H15         36.7800    -9.2850    14.0300 ho         1 9IL       0.464000
     52 H16         29.5770   -11.9230    19.7080 ha         1 9IL       0.126000
     53 H17         27.2350   -10.2420    16.4860 ha         1 9IL       0.126000
     54 H18         26.1990    -9.3820    18.7260 ha         1 9IL       0.126000
     55 H19         32.3150    -9.6060    19.4720 hc         1 9IL       0.050367
     56 H20         31.7860   -11.1390    20.1720 hc         1 9IL       0.050367
     57 H21         32.6660   -11.1290    18.6370 hc         1 9IL       0.050367
     58 H22         31.2030   -14.9270    14.0200 h1         1 9IL       0.046033
     59 H23         32.2160   -14.4280    12.6510 h1         1 9IL       0.046033
     60 H24         32.9610   -15.1650    14.0920 h1         1 9IL       0.046033
@<TRIPOS>BOND
     1     1     2 ar  
     2     1     9 ar  
     3     2    20 1   
     4     2    21 ar  
     5     3     4 ar  
     6     3    21 ar  
     7     3    38 1   
     8     4     5 ar  
     9     4    29 1   
    10     5     6 ar  
    11     5    39 1   
    12     6     7 ar  
    13     6    40 1   
    14     7     8 ar  
    15     7    21 ar  
    16     8     9 ar  
    17     8    28 1   
    18     9    22 1   
    19    10    25 1   
    20    10    26 1   
    21    10    27 1   
    22    11    13 ar  
    23    11    29 1   
    24    11    30 ar  
    25    12    31 ar  
    26    12    32 ar  
    27    12    35 1   
    28    13    19 1   
    29    13    32 ar  
    30    14    15 ar  
    31    14    33 ar  
    32    14    35 1   
    33    15    16 ar  
    34    15    41 1   
    35    16    17 ar  
    36    16    42 1   
    37    17    18 ar  
    38    17    43 1   
    39    18    33 ar  
    40    18    44 1   
    41    19    45 1   
    42    19    46 1   
    43    19    47 1   
    44    20    37 1   
    45    22    23 2   
    46    22    24 1   
    47    24    25 1   
    48    24    48 1   
    49    25    49 1   
    50    25    50 1   
    51    28    51 1   
    52    30    31 ar  
    53    30    34 1   
    54    31    52 1   
    55    32    53 1   
    56    33    54 1   
    57    34    55 1   
    58    34    56 1   
    59    34    57 1   
    60    35    36 2   
    61    37    58 1   
    62    37    59 1   
    63    37    60 1   
@<TRIPOS>SUBSTRUCTURE
     1 9IL         1 TEMP              0 ****  ****    0 ROOT
