@<TRIPOS>MOLECULE
9IM
   53    56     1     0     0
SMALL
abcg2


@<TRIPOS>ATOM
      1 C11         97.0470   102.0990    66.6740 ca         1 9IM      -0.152000
      2 C12         96.7720   102.2880    65.3300 ca         1 9IM      -0.067000
      3 C13         95.4610   102.3340    64.8810 ca         1 9IM      -0.118000
      4 C14         94.4280   102.1870    65.7920 ca         1 9IM       0.159000
      5 C16         93.0460    99.3760    67.7180 ca         1 9IM      -0.029000
      6 C17         94.3030    98.8210    67.8510 ca         1 9IM      -0.121000
      7 C23         99.0080    97.9670    68.4370 ca         1 9IM      -0.217300
      8 C24         99.2590    98.3740    67.1320 ca         1 9IM       0.241000
      9 C27        100.8190    99.9930    67.8290 ca         1 9IM       0.232000
     10 C29        100.6190    99.6590    69.1520 ca         1 9IM      -0.225500
     11 C30         99.7120    98.6510    69.4180 ca         1 9IM       0.241000
     12 C02         90.7160    99.4710    67.3670 c5         1 9IM      -0.080700
     13 C03         90.0840    99.5170    65.9730 c3         1 9IM      -0.071100
     14 C04         91.3020   100.8410    67.7090 c          1 9IM       0.572000
     15 C08         94.6530   101.9760    67.1530 ca         1 9IM      -0.143300
     16 C09         95.9870   101.9510    67.5440 ca         1 9IM       0.180000
     17 C18         94.4410    97.4450    67.6410 ca         1 9IM      -0.120600
     18 C19         95.7750    96.7720    67.7280 c          1 9IM       0.618700
     19 C22         98.0180    96.8760    68.7450 c3         1 9IM       0.158300
     20 C26        100.1510    99.3700    66.7910 ca         1 9IM      -0.225500
     21 C32         93.3380    96.6680    67.3030 ca         1 9IM      -0.086000
     22 C33         92.0740    97.2440    67.1980 ca         1 9IM      -0.067000
     23 C34         91.9330    98.5970    67.4080 ca         1 9IM      -0.116300
     24 F10         96.2640   101.7560    68.8430 f          1 9IM      -0.180000
     25 F25         98.6020    97.7560    66.1470 f          1 9IM      -0.158500
     26 F28        101.6960   100.9560    67.5380 f          1 9IM      -0.163000
     27 F31         99.5100    98.3220    70.6970 f          1 9IM      -0.158500
     28 N06         92.6580   100.7060    67.8630 n          1 9IM      -0.217400
     29 N21         96.6570    97.3340    68.5770 ns         1 9IM      -0.507900
     30 O20         96.0190    95.7730    67.0690 o          1 9IM      -0.591100
     31 CL1         92.8050   102.2950    65.2020 cl         1 9IM      -0.178000
     32 H111        98.0630   102.0670    67.0440 ha         1 9IM       0.137000
     33 H121        97.5840   102.4030    64.6250 ha         1 9IM       0.126000
     34 H131        95.2440   102.4910    63.8340 ha         1 9IM       0.138000
     35 H171        95.1620    99.4300    68.0890 ha         1 9IM       0.124000
     36 H291       101.1490   100.1620    69.9500 ha         1 9IM       0.156500
     37 H011        90.1120    99.0410    69.4200 hc         1 9IM       0.047700
     38 H012        88.8480    99.7760    68.4250 hc         1 9IM       0.047700
     39 H013        89.2820    98.0820    68.1920 hc         1 9IM       0.047700
     40 H031        89.2560   100.2260    65.9500 hc         1 9IM       0.047700
     41 H032        90.8090    99.8060    65.2120 hc         1 9IM       0.047700
     42 H033        89.6930    98.5330    65.7130 hc         1 9IM       0.047700
     43 H071        93.9530   101.6860    69.1610 h1         1 9IM       0.080200
     44 H072        92.9280   102.7120    68.1840 h1         1 9IM       0.080200
     45 H222        98.1620    96.5120    69.7610 h1         1 9IM       0.076700
     46 H221        98.1770    96.0240    68.0860 h1         1 9IM       0.076700
     47 H261       100.3210    99.6440    65.7590 ha         1 9IM       0.156500
     48 H321        93.4600    95.6080    67.1330 ha         1 9IM       0.138000
     49 H331        91.2160    96.6300    66.9550 ha         1 9IM       0.123000
     50 H211        96.3530    98.0750    69.1880 hn         1 9IM       0.320500
     51 C07         93.5410   101.8100    68.1600 c3         1 9IM       0.159300
     52 O05         90.6830   101.8740    67.8300 o          1 9IM      -0.516000
     53 C01         89.6800    99.0710    68.4200 c3         1 9IM      -0.071100
@<TRIPOS>BOND
     1     1     2 ar  
     2     1    16 ar  
     3     1    32 1   
     4     2     3 ar  
     5     2    33 1   
     6     3     4 ar  
     7     3    34 1   
     8     4    15 ar  
     9     4    31 1   
    10     5     6 ar  
    11     5    23 ar  
    12     5    28 1   
    13     6    17 ar  
    14     6    35 1   
    15     7     8 ar  
    16     7    11 ar  
    17     7    19 1   
    18     8    20 ar  
    19     8    25 1   
    20     9    10 ar  
    21     9    20 ar  
    22     9    26 1   
    23    10    11 ar  
    24    10    36 1   
    25    11    27 1   
    26    12    13 1   
    27    12    14 1   
    28    12    23 1   
    29    12    53 1   
    30    13    40 1   
    31    13    41 1   
    32    13    42 1   
    33    14    28 1   
    34    14    52 2   
    35    15    16 ar  
    36    15    51 1   
    37    16    24 1   
    38    17    18 1   
    39    17    21 ar  
    40    18    29 1   
    41    18    30 2   
    42    19    29 1   
    43    19    45 1   
    44    19    46 1   
    45    20    47 1   
    46    21    22 ar  
    47    21    48 1   
    48    22    23 ar  
    49    22    49 1   
    50    28    51 1   
    51    29    50 1   
    52    37    53 1   
    53    38    53 1   
    54    39    53 1   
    55    43    51 1   
    56    44    51 1   
@<TRIPOS>SUBSTRUCTURE
     1 9IM         1 TEMP              0 ****  ****    0 ROOT
