@<TRIPOS>MOLECULE
9IM
   53    56     1     0     0
SMALL
No Charge or Current Charge


@<TRIPOS>ATOM
      1 C11         97.2150   101.6940    67.2440 ca         1 9IM      -0.152000
      2 C12         97.1560   101.7000    65.8420 ca         1 9IM      -0.067000
      3 C13         95.9090   101.7760    65.2020 ca         1 9IM      -0.118000
      4 C14         94.7230   101.8360    65.9550 ca         1 9IM       0.159000
      5 C16         92.9440    99.3810    67.7480 ca         1 9IM      -0.029000
      6 C17         94.1720    98.7600    68.0120 ca         1 9IM      -0.121000
      7 C23         99.0630    98.1870    68.0460 ca         1 9IM      -0.217300
      8 C24         99.4420    98.5910    66.7510 ca         1 9IM       0.241000
      9 C27        100.8160   100.3590    67.6740 ca         1 9IM       0.232000
     10 C29        100.4460    99.9760    68.9680 ca         1 9IM      -0.225500
     11 C30         99.5740    98.8950    69.1520 ca         1 9IM       0.241000
     12 C02         90.5910    99.5330    67.3660 c5         1 9IM      -0.080700
     13 C03         89.9780    99.6030    65.9440 c3         1 9IM      -0.071100
     14 C04         91.1680   100.9350    67.7840 c          1 9IM       0.572000
     15 C08         94.7700   101.8100    67.3690 ca         1 9IM      -0.143300
     16 C09         96.0340   101.7540    67.9990 ca         1 9IM       0.180000
     17 C18         94.3080    97.3680    67.7700 ca         1 9IM      -0.120600
     18 C19         95.6410    96.6630    67.9310 c          1 9IM       0.618700
     19 C22         98.1090    97.0170    68.2420 c3         1 9IM       0.158300
     20 C26        100.3140    99.6710    66.5640 ca         1 9IM      -0.225500
     21 C32         93.1650    96.6310    67.3630 ca         1 9IM      -0.086000
     22 C33         91.9150    97.2630    67.2000 ca         1 9IM      -0.067000
     23 C34         91.8260    98.6470    67.4090 ca         1 9IM      -0.116300
     24 F10         96.1280   101.7360    69.3470 f          1 9IM      -0.180000
     25 F25         98.9610    97.9420    65.6670 f          1 9IM      -0.158500
     26 F28        101.6530   101.4020    67.4950 f          1 9IM      -0.163000
     27 F31         99.2220    98.5450    70.4090 f          1 9IM      -0.158500
     28 N06         92.5450   100.7190    67.9900 n          1 9IM      -0.217400
     29 N21         96.7300    97.4770    68.1410 ns         1 9IM      -0.507900
     30 O20         95.7570    95.4460    67.8700 o          1 9IM      -0.591100
     31 Cl1         93.1930   101.9580    65.0860 cl         1 9IM      -0.178000
     32 H111        98.1750   101.6470    67.7500 ha         1 9IM       0.137000
     33 H121        98.0710   101.6540    65.2550 ha         1 9IM       0.126000
     34 H131        95.8590   101.7920    64.1160 ha         1 9IM       0.138000
     35 H171        94.9990    99.3470    68.3910 ha         1 9IM       0.124000
     36 H291       100.8340   100.5160    69.8270 ha         1 9IM       0.156500
     37 H011        89.9140    99.0240    69.3920 hc         1 9IM       0.047700
     38 H012        88.6570    99.7670    68.3910 hc         1 9IM       0.047700
     39 H013        89.1220    98.0790    68.1220 hc         1 9IM       0.047700
     40 H031        89.1380   100.3070    65.9050 hc         1 9IM       0.047700
     41 H032        90.7230    99.9350    65.2110 hc         1 9IM       0.047700
     42 H033        89.6090    98.6230    65.6200 hc         1 9IM       0.047700
     43 H071        93.7280   101.8660    69.2770 h1         1 9IM       0.080200
     44 H072        92.9710   102.7900    67.9920 h1         1 9IM       0.080200
     45 H222        98.2610    96.5500    69.2250 h1         1 9IM       0.076700
     46 H221        98.2950    96.2490    67.4780 h1         1 9IM       0.076700
     47 H261       100.5990    99.9740    65.5600 ha         1 9IM       0.156500
     48 H321        93.2400    95.5610    67.1830 ha         1 9IM       0.138000
     49 H331        91.0360    96.6860    66.9220 ha         1 9IM       0.123000
     50 H211        96.5590    98.4720    68.1600 hn         1 9IM       0.320500
     51 C07         93.4860   101.8450    68.2080 c3         1 9IM       0.159300
     52 O05         90.5840   102.0070    67.9000 o          1 9IM      -0.516000
     53 C01         89.5070    99.0740    68.3750 c3         1 9IM      -0.071100
@<TRIPOS>BOND
     1     1     2 ar  
     2     1    16 ar  
     3     1    32 1   
     4     2     3 ar  
     5     2    33 1   
     6     3     4 ar  
     7     3    34 1   
     8     4    15 ar  
     9     4    31 1   
    10     5     6 ar  
    11     5    23 ar  
    12     5    28 1   
    13     6    17 ar  
    14     6    35 1   
    15     7     8 ar  
    16     7    11 ar  
    17     7    19 1   
    18     8    20 ar  
    19     8    25 1   
    20     9    10 ar  
    21     9    20 ar  
    22     9    26 1   
    23    10    11 ar  
    24    10    36 1   
    25    11    27 1   
    26    12    13 1   
    27    12    14 1   
    28    12    23 1   
    29    12    53 1   
    30    13    40 1   
    31    13    41 1   
    32    13    42 1   
    33    14    28 1   
    34    14    52 2   
    35    15    16 ar  
    36    15    51 1   
    37    16    24 1   
    38    17    18 1   
    39    17    21 ar  
    40    18    29 1   
    41    18    30 2   
    42    19    29 1   
    43    19    45 1   
    44    19    46 1   
    45    20    47 1   
    46    21    22 ar  
    47    21    48 1   
    48    22    23 ar  
    49    22    49 1   
    50    28    51 1   
    51    29    50 1   
    52    37    53 1   
    53    38    53 1   
    54    39    53 1   
    55    43    51 1   
    56    44    51 1   
@<TRIPOS>SUBSTRUCTURE
     1 9IM         1 TEMP              0 ****  ****    0 ROOT
