@<TRIPOS>MOLECULE
9IN
   94    95     1     0     0
SMALL
No Charge or Current Charge


@<TRIPOS>ATOM
      1 C4          -8.7510    -0.7540    -2.2430 cc         1 9IN       0.162900
      2 C2         -10.5250    -0.3610    -0.9480 cd         1 9IN      -0.134000
      3 C3         -10.9630    -0.6630    -2.2060 cc         1 9IN       0.106900
      4 O1          -9.8800    -0.9090    -3.0180 os         1 9IN      -0.230000
      5 C1          -9.1110    -0.4160    -0.9630 cd         1 9IN      -0.231600
      6 C5          -8.1770    -0.1680     0.1590 c          1 9IN       0.647700
      7 O2          -8.5480     0.1300     1.2850 o          1 9IN      -0.603100
      8 N2          -6.8480    -0.2950    -0.1760 ns         1 9IN      -0.492900
      9 C6          -5.7060    -0.1120     0.7520 c3         1 9IN       0.032700
     10 C8          -5.2190    -1.4690     1.3600 c3         1 9IN      -0.066700
     11 C9          -6.3060    -2.1670     2.2110 c3         1 9IN      -0.088600
     12 C10         -4.6410    -2.4360     0.2960 c3         1 9IN      -0.088600
     13 C7          -4.5570     0.6630     0.0380 c          1 9IN       0.592100
     14 O3          -4.5730     0.9330    -1.1570 o          1 9IN      -0.614100
     15 N3          -3.4940     1.0080     0.8460 ns         1 9IN      -0.494900
     16 C11         -2.2320     1.6240     0.3790 c3         1 9IN       0.036700
     17 C12         -2.1690     3.1380     0.7560 c3         1 9IN      -0.066700
     18 C13         -0.8390     3.8060     0.3270 c3         1 9IN      -0.091600
     19 C14         -3.3730     3.9370     0.1950 c3         1 9IN      -0.091600
     20 C15         -1.0510     0.8050     0.9740 c          1 9IN       0.589100
     21 O4          -1.0890     0.3070     2.0930 o          1 9IN      -0.615100
     22 N4           0.0350     0.6450     0.1390 ns         1 9IN      -0.477900
     23 C16          1.2190    -0.1970     0.4270 c3         1 9IN       0.027700
     24 C17          1.1050    -1.5700    -0.2990 c3         1 9IN      -0.084400
     25 C18         -0.0780    -2.4800     0.1430 c3         1 9IN      -0.059700
     26 C19         -0.2410    -3.6800    -0.8170 c3         1 9IN      -0.091600
     27 C20          0.0650    -2.9720     1.6030 c3         1 9IN      -0.091600
     28 C21          2.5180     0.5510     0.0100 c          1 9IN       0.588100
     29 O5           2.5180     1.5510    -0.6970 o          1 9IN      -0.587100
     30 N5           3.6860     0.0050     0.5010 ns         1 9IN      -0.506900
     31 C22          5.0240     0.5330     0.2530 c3         1 9IN       0.140900
     32 C23          6.0090    -0.5960     0.4620 c2         1 9IN      -0.175200
     33 C28          5.3200     1.7620     1.1510 c3         1 9IN      -0.063400
     34 C29          6.7350     2.3880     0.9870 c5         1 9IN      -0.153700
     35 C30          7.0320     3.5520     1.9710 c5         1 9IN      -0.092400
     36 C31          8.2420     4.2360     1.2790 c5         1 9IN       0.100000
     37 N6           7.8710     4.0760    -0.1260 ns         1 9IN      -0.513900
     38 C32          7.0180     3.0360    -0.3780 c          1 9IN       0.562000
     39 O8           6.4560     2.8880    -1.4500 o          1 9IN      -0.551000
     40 C24          6.4220    -1.4650    -0.4920 ce         1 9IN      -0.242200
     41 C25          7.3890    -2.5690    -0.2580 c          1 9IN       0.594300
     42 O6           7.9160    -2.8080     0.8200 o          1 9IN      -0.502000
     43 O7           7.6110    -3.2790    -1.4070 os         1 9IN      -0.440100
     44 C26          8.5270    -4.3850    -1.3500 c3         1 9IN       0.167600
     45 C27          8.5940    -5.0030    -2.7560 c3         1 9IN      -0.097100
     46 H4          -7.7920    -0.9120    -2.7190 h4         1 9IN       0.056100
     47 H2         -11.1550    -0.1220    -0.0960 ha         1 9IN       0.160000
     48 H3         -11.9520    -0.7370    -2.6370 h4         1 9IN       0.057100
     49 HN2         -6.6400    -0.4930    -1.1470 hn         1 9IN       0.331500
     50 H6          -6.0290     0.5360     1.5780 h1         1 9IN       0.091700
     51 H8          -4.3990    -1.2400     2.0530 hc         1 9IN       0.050700
     52 H91         -5.8900    -3.0420     2.7240 hc         1 9IN       0.039367
     53 H92         -6.7000    -1.4850     2.9740 hc         1 9IN       0.039367
     54 H93         -7.1410    -2.5070     1.5870 hc         1 9IN       0.039367
     55 H101        -3.8050    -1.9780    -0.2460 hc         1 9IN       0.039367
     56 H102        -4.2650    -3.3500     0.7700 hc         1 9IN       0.039367
     57 H103        -5.4080    -2.7230    -0.4340 hc         1 9IN       0.039367
     58 HN3         -3.5480     0.7250     1.8190 hn         1 9IN       0.331500
     59 H11         -2.1710     1.5290    -0.7130 h1         1 9IN       0.087700
     60 H12         -2.2220     3.2060     1.8510 hc         1 9IN       0.064700
     61 H131        -0.6860     3.7140    -0.7560 hc         1 9IN       0.041033
     62 H132        -0.8420     4.8730     0.5800 hc         1 9IN       0.041033
     63 H133         0.0180     3.3530     0.8380 hc         1 9IN       0.041033
     64 H141        -4.3220     3.5660     0.6010 hc         1 9IN       0.041033
     65 H142        -3.2950     4.9980     0.4630 hc         1 9IN       0.041033
     66 H143        -3.4140     3.8630    -0.8990 hc         1 9IN       0.041033
     67 HN4          0.0030     1.1270    -0.7520 hn         1 9IN       0.331500
     68 H16          1.2950    -0.3610     1.5090 h1         1 9IN       0.089700
     69 H171         1.0220    -1.3770    -1.3770 hc         1 9IN       0.054200
     70 H172         2.0390    -2.1290    -0.1640 hc         1 9IN       0.054200
     71 H18         -1.0050    -1.8990     0.0770 hc         1 9IN       0.051700
     72 H191         0.6530    -4.3150    -0.8060 hc         1 9IN       0.035700
     73 H192        -1.1020    -4.2950    -0.5280 hc         1 9IN       0.035700
     74 H193        -0.4050    -3.3360    -1.8450 hc         1 9IN       0.035700
     75 H201         0.1040    -2.1340     2.3070 hc         1 9IN       0.035700
     76 H202        -0.7890    -3.6000     1.8830 hc         1 9IN       0.035700
     77 H203         0.9790    -3.5650     1.7280 hc         1 9IN       0.035700
     78 HN5          3.6000    -0.8280     1.0700 hn         1 9IN       0.313500
     79 H22          5.0720     0.8510    -0.7980 h1         1 9IN       0.110700
     80 H23          6.3860    -0.6810     1.4840 ha         1 9IN       0.184000
     81 H281         4.5630     2.5310     0.9550 hc         1 9IN       0.050700
     82 H282         5.1820     1.4630     2.1980 hc         1 9IN       0.050700
     83 H29          7.5040     1.6240     1.1510 hc         1 9IN       0.081700
     84 H301         6.1830     4.2440     2.0390 hc         1 9IN       0.058700
     85 H302         7.2620     3.2120     2.9880 hc         1 9IN       0.058700
     86 H311         8.3470     5.2880     1.5760 h1         1 9IN       0.046700
     87 H312         9.1830     3.7150     1.5040 h1         1 9IN       0.046700
     88 HN6          8.1150     4.7040    -0.8830 hn         1 9IN       0.330500
     89 H24          6.0480    -1.3920    -1.5120 ha         1 9IN       0.217000
     90 H261         8.1810    -5.1430    -0.6330 h1         1 9IN       0.046700
     91 H262         9.5280    -4.0500    -1.0480 h1         1 9IN       0.046700
     92 H271         9.2830    -5.8550    -2.7630 hc         1 9IN       0.046700
     93 H272         7.6050    -5.3570    -3.0690 hc         1 9IN       0.046700
     94 H273         8.9510    -4.2650    -3.4840 hc         1 9IN       0.046700
@<TRIPOS>BOND
     1     1     4 1   
     2     1     5 2   
     3     1    46 1   
     4     2     3 2   
     5     2     5 1   
     6     2    47 1   
     7     3     4 1   
     8     3    48 1   
     9     5     6 1   
    10     6     7 2   
    11     6     8 1   
    12     8     9 1   
    13     8    49 1   
    14     9    10 1   
    15     9    13 1   
    16     9    50 1   
    17    10    11 1   
    18    10    12 1   
    19    10    51 1   
    20    11    52 1   
    21    11    53 1   
    22    11    54 1   
    23    12    55 1   
    24    12    56 1   
    25    12    57 1   
    26    13    14 2   
    27    13    15 1   
    28    15    16 1   
    29    15    58 1   
    30    16    17 1   
    31    16    20 1   
    32    16    59 1   
    33    17    18 1   
    34    17    19 1   
    35    17    60 1   
    36    18    61 1   
    37    18    62 1   
    38    18    63 1   
    39    19    64 1   
    40    19    65 1   
    41    19    66 1   
    42    20    21 2   
    43    20    22 1   
    44    22    23 1   
    45    22    67 1   
    46    23    24 1   
    47    23    28 1   
    48    23    68 1   
    49    24    25 1   
    50    24    69 1   
    51    24    70 1   
    52    25    26 1   
    53    25    27 1   
    54    25    71 1   
    55    26    72 1   
    56    26    73 1   
    57    26    74 1   
    58    27    75 1   
    59    27    76 1   
    60    27    77 1   
    61    28    29 2   
    62    28    30 1   
    63    30    31 1   
    64    30    78 1   
    65    31    32 1   
    66    31    33 1   
    67    31    79 1   
    68    32    40 2   
    69    32    80 1   
    70    33    34 1   
    71    33    81 1   
    72    33    82 1   
    73    34    35 1   
    74    34    38 1   
    75    34    83 1   
    76    35    36 1   
    77    35    84 1   
    78    35    85 1   
    79    36    37 1   
    80    36    86 1   
    81    36    87 1   
    82    37    38 1   
    83    37    88 1   
    84    38    39 2   
    85    40    41 1   
    86    40    89 1   
    87    41    42 2   
    88    41    43 1   
    89    43    44 1   
    90    44    45 1   
    91    44    90 1   
    92    44    91 1   
    93    45    92 1   
    94    45    93 1   
    95    45    94 1   
@<TRIPOS>SUBSTRUCTURE
     1 9IN         1 TEMP              0 ****  ****    0 ROOT
