@<TRIPOS>MOLECULE
9IN
   94    95     1     0     0
SMALL
bcc


@<TRIPOS>ATOM
      1 C4          -8.6730    -2.0560    -1.2720 cc         1 9IN       0.272600
      2 C2         -10.1360    -0.4880    -0.6750 cd         1 9IN      -0.217300
      3 C3         -10.7440    -1.4190    -1.4400 cc         1 9IN       0.216600
      4 O1          -9.8590    -2.3760    -1.8030 os         1 9IN      -0.318800
      5 C1          -8.7690    -0.8980    -0.5670 cd         1 9IN      -0.296900
      6 C5          -7.7340    -0.1820     0.2040 c          1 9IN       0.714700
      7 O2          -8.0440     0.7090     0.9830 o          1 9IN      -0.603100
      8 N2          -6.4650    -0.5820    -0.0080 ns         1 9IN      -0.559900
      9 C6          -5.3220     0.0130     0.6330 c3         1 9IN       0.032700
     10 C8          -4.7570    -0.8560     1.7830 c3         1 9IN      -0.066700
     11 C9          -5.7740    -0.9870     2.9100 c3         1 9IN      -0.088600
     12 C10         -4.2950    -2.2290     1.3080 c3         1 9IN      -0.088600
     13 C7          -4.2400     0.2540    -0.4150 c          1 9IN       0.659100
     14 O3          -4.2100    -0.3720    -1.4640 o          1 9IN      -0.614100
     15 N3          -3.3180     1.1620    -0.0570 ns         1 9IN      -0.561900
     16 C11         -2.0870     1.3970    -0.7810 c3         1 9IN       0.036700
     17 C12         -1.9780     2.8220    -1.3370 c3         1 9IN      -0.066700
     18 C13         -0.6520     2.9900    -2.0760 c3         1 9IN      -0.091600
     19 C14         -3.1530     3.1320    -2.2560 c3         1 9IN      -0.091600
     20 C15         -0.9480     1.0960     0.1880 c          1 9IN       0.656100
     21 O4          -0.8310     1.7320     1.2260 o          1 9IN      -0.615100
     22 N4          -0.1430     0.0850    -0.1640 ns         1 9IN      -0.544900
     23 C16          0.9620    -0.3710     0.6360 c3         1 9IN       0.027700
     24 C17          1.0210    -1.9020     0.6500 c3         1 9IN      -0.084400
     25 C18         -0.2520    -2.5720     1.1720 c3         1 9IN      -0.059700
     26 C19         -0.0760    -4.0870     1.1510 c3         1 9IN      -0.091600
     27 C20         -0.6250    -2.0910     2.5700 c3         1 9IN      -0.091600
     28 C21          2.2780     0.1960     0.1040 c          1 9IN       0.655100
     29 O5           2.4300     0.4870    -1.0700 o          1 9IN      -0.587100
     30 N5           3.2420     0.3080     1.0330 ns         1 9IN      -0.573900
     31 C22          4.6100     0.6840     0.7210 c3         1 9IN       0.140900
     32 C23          5.3390    -0.5040     0.1680 c2         1 9IN      -0.125200
     33 C28          5.2670     1.2080     2.0000 c3         1 9IN      -0.063400
     34 C29          6.7360     1.5820     1.8710 c5         1 9IN      -0.153700
     35 C30          7.3830     1.9720     3.2010 c5         1 9IN      -0.092400
     36 C31          8.5180     2.9110     2.7960 c5         1 9IN       0.100000
     37 N6           8.0120     3.4850     1.5670 ns         1 9IN      -0.580900
     38 C32          7.0300     2.7810     0.9810 c          1 9IN       0.704500
     39 O8           6.4920     3.0530    -0.0820 o          1 9IN      -0.626500
     40 C24          5.9110    -0.5260    -1.0320 ce         1 9IN      -0.192200
     41 C25          6.6060    -1.7300    -1.5280 c          1 9IN       0.643300
     42 O6           6.7310    -2.7650    -0.9160 o          1 9IN      -0.551000
     43 O7           7.0790    -1.5340    -2.7510 os         1 9IN      -0.416900
     44 C26          7.7640    -2.6180    -3.3970 c3         1 9IN       0.144400
     45 C27          8.1880    -2.1440    -4.7660 c3         1 9IN      -0.097100
     46 H4          -7.8620    -2.7420    -1.4630 h4         1 9IN       0.056100
     47 H2         -10.5900     0.3880    -0.2420 ha         1 9IN       0.178000
     48 H3         -11.7540    -1.5320    -1.7990 h4         1 9IN       0.057100
     49 HN2         -6.2720    -1.2090    -0.7740 hn         1 9IN       0.331500
     50 H6          -5.6320     0.9720     1.0560 h1         1 9IN       0.091700
     51 H8          -3.8890    -0.3180     2.1790 hc         1 9IN       0.050700
     52 H91         -5.3330    -1.5170     3.7560 hc         1 9IN       0.039367
     53 H92         -6.1140    -0.0140     3.2630 hc         1 9IN       0.039367
     54 H93         -6.6510    -1.5540     2.5920 hc         1 9IN       0.039367
     55 H101        -3.5060    -2.1730     0.5570 hc         1 9IN       0.039367
     56 H102        -3.8970    -2.7990     2.1490 hc         1 9IN       0.039367
     57 H103        -5.1210    -2.8040     0.8870 hc         1 9IN       0.039367
     58 HN3         -3.4390     1.6570     0.8140 hn         1 9IN       0.331500
     59 H11         -2.0740     0.7000    -1.6210 h1         1 9IN       0.087700
     60 H12         -1.9980     3.5200    -0.4940 hc         1 9IN       0.064700
     61 H131        -0.5620     2.2650    -2.8880 hc         1 9IN       0.041033
     62 H132        -0.5860     3.9860    -2.5140 hc         1 9IN       0.041033
     63 H133         0.2120     2.8660    -1.4220 hc         1 9IN       0.041033
     64 H141        -4.1060     3.0870    -1.7300 hc         1 9IN       0.041033
     65 H142        -3.0550     4.1360    -2.6720 hc         1 9IN       0.041033
     66 H143        -3.1950     2.4290    -3.0920 hc         1 9IN       0.041033
     67 HN4         -0.2840    -0.3550    -1.0590 hn         1 9IN       0.331500
     68 H16          0.8070    -0.0080     1.6540 h1         1 9IN       0.089700
     69 H171         1.2350    -2.2610    -0.3620 hc         1 9IN       0.054200
     70 H172         1.8680    -2.2110     1.2710 hc         1 9IN       0.054200
     71 H18         -1.0770    -2.3230     0.4950 hc         1 9IN       0.051700
     72 H191         0.7210    -4.3990     1.8290 hc         1 9IN       0.035700
     73 H192        -0.9930    -4.5910     1.4620 hc         1 9IN       0.035700
     74 H193         0.1760    -4.4480     0.1520 hc         1 9IN       0.035700
     75 H201        -0.9180    -1.0400     2.5840 hc         1 9IN       0.035700
     76 H202        -1.4700    -2.6610     2.9580 hc         1 9IN       0.035700
     77 H203         0.2080    -2.2160     3.2660 hc         1 9IN       0.035700
     78 HN5          3.0340     0.0410     1.9830 hn         1 9IN       0.313500
     79 H22          4.5860     1.4780    -0.0240 h1         1 9IN       0.110700
     80 H23          5.3800    -1.3810     0.8100 ha         1 9IN       0.134000
     81 H281         4.6940     2.0700     2.3540 hc         1 9IN       0.050700
     82 H282         5.1850     0.4380     2.7750 hc         1 9IN       0.050700
     83 H29          7.2930     0.7400     1.4400 hc         1 9IN       0.081700
     84 H301         6.6600     2.5130     3.8180 hc         1 9IN       0.058700
     85 H302         7.7340     1.1140     3.7710 hc         1 9IN       0.058700
     86 H311         8.7110     3.6840     3.5400 h1         1 9IN       0.046700
     87 H312         9.4520     2.3680     2.6240 h1         1 9IN       0.046700
     88 HN6          8.4630     4.2580     1.1020 hn         1 9IN       0.330500
     89 H24          5.8770     0.3430    -1.6780 ha         1 9IN       0.167000
     90 H261         7.0990    -3.4800    -3.4710 h1         1 9IN       0.046700
     91 H262         8.6310    -2.9130    -2.8020 h1         1 9IN       0.046700
     92 H271         8.7000    -2.9550    -5.2830 hc         1 9IN       0.046700
     93 H272         7.3310    -1.8500    -5.3720 hc         1 9IN       0.046700
     94 H273         8.8760    -1.3010    -4.7040 hc         1 9IN       0.046700
@<TRIPOS>BOND
     1     1     4 1   
     2     1     5 2   
     3     1    46 1   
     4     2     3 2   
     5     2     5 1   
     6     2    47 1   
     7     3     4 1   
     8     3    48 1   
     9     5     6 1   
    10     6     7 2   
    11     6     8 1   
    12     8     9 1   
    13     8    49 1   
    14     9    10 1   
    15     9    13 1   
    16     9    50 1   
    17    10    11 1   
    18    10    12 1   
    19    10    51 1   
    20    11    52 1   
    21    11    53 1   
    22    11    54 1   
    23    12    55 1   
    24    12    56 1   
    25    12    57 1   
    26    13    14 2   
    27    13    15 1   
    28    15    16 1   
    29    15    58 1   
    30    16    17 1   
    31    16    20 1   
    32    16    59 1   
    33    17    18 1   
    34    17    19 1   
    35    17    60 1   
    36    18    61 1   
    37    18    62 1   
    38    18    63 1   
    39    19    64 1   
    40    19    65 1   
    41    19    66 1   
    42    20    21 2   
    43    20    22 1   
    44    22    23 1   
    45    22    67 1   
    46    23    24 1   
    47    23    28 1   
    48    23    68 1   
    49    24    25 1   
    50    24    69 1   
    51    24    70 1   
    52    25    26 1   
    53    25    27 1   
    54    25    71 1   
    55    26    72 1   
    56    26    73 1   
    57    26    74 1   
    58    27    75 1   
    59    27    76 1   
    60    27    77 1   
    61    28    29 2   
    62    28    30 1   
    63    30    31 1   
    64    30    78 1   
    65    31    32 1   
    66    31    33 1   
    67    31    79 1   
    68    32    40 2   
    69    32    80 1   
    70    33    34 1   
    71    33    81 1   
    72    33    82 1   
    73    34    35 1   
    74    34    38 1   
    75    34    83 1   
    76    35    36 1   
    77    35    84 1   
    78    35    85 1   
    79    36    37 1   
    80    36    86 1   
    81    36    87 1   
    82    37    38 1   
    83    37    88 1   
    84    38    39 2   
    85    40    41 1   
    86    40    89 1   
    87    41    42 2   
    88    41    43 1   
    89    43    44 1   
    90    44    45 1   
    91    44    90 1   
    92    44    91 1   
    93    45    92 1   
    94    45    93 1   
    95    45    94 1   
@<TRIPOS>SUBSTRUCTURE
     1 9IN         1 TEMP              0 ****  ****    0 ROOT
