@<TRIPOS>MOLECULE
9IO
   30    32     1     0     0
SMALL
bcc


@<TRIPOS>ATOM
      1 N1          72.3830    39.7630    -1.1510 nb         1 9IO      -0.813000
      2 C2          68.1680    41.9880    -3.4240 ca         1 9IO      -0.164500
      3 N3          72.3100    36.4610     1.1070 na         1 9IO      -0.264100
      4 C4          69.7940    40.8550    -2.0310 ca         1 9IO       0.128600
      5 C5          71.2240    39.2130    -0.8010 ca         1 9IO       0.764200
      6 C6          73.5160    39.1910    -0.7380 ca         1 9IO       0.702900
      7 C           69.4940    45.1240    -4.6850 c3         1 9IO       0.125700
      8 C1          69.0680    43.0260    -3.6680 ca         1 9IO       0.117100
      9 C12         70.3270    42.9670    -3.0820 ca         1 9IO      -0.164500
     10 C11         70.6850    41.8960    -2.2690 ca         1 9IO      -0.123500
     11 C3          68.5280    40.9230    -2.6240 ca         1 9IO      -0.123500
     12 N           70.0500    39.7510    -1.2090 nu         1 9IO      -0.733300
     13 C10         71.2230    38.0530     0.0000 ca         1 9IO      -0.387400
     14 C9          70.2580    37.1780     0.5820 cc         1 9IO      -0.159200
     15 C8          70.9670    36.2220     1.2480 cd         1 9IO      -0.124100
     16 C7          72.4890    37.5700     0.3520 ca         1 9IO       0.472800
     17 N2          73.6590    38.1120     0.0000 nb         1 9IO      -0.749000
     18 H1          67.1810    42.0170    -3.8700 ha         1 9IO       0.140500
     19 H2          73.0480    35.9010     1.5020 hn         1 9IO       0.312700
     20 H3          74.4280    39.6830    -1.0580 h5         1 9IO       0.045100
     21 H4          68.9540    45.8170    -5.3250 h1         1 9IO       0.039700
     22 H5          69.7480    45.6330    -3.7510 h1         1 9IO       0.039700
     23 H6          70.4210    44.8330    -5.1870 h1         1 9IO       0.039700
     24 H7          71.0560    43.7510    -3.2370 ha         1 9IO       0.140500
     25 H8          71.6680    41.8830    -1.8270 ha         1 9IO       0.146500
     26 H9          67.8110    40.1270    -2.4570 ha         1 9IO       0.146500
     27 H10         69.2290    39.2250    -0.9510 hn         1 9IO       0.442800
     28 H11         69.1830    37.2390     0.5240 ha         1 9IO       0.153000
     29 H12         70.6180    35.3790     1.8210 h4         1 9IO       0.168000
     30 O           68.6390    44.0220    -4.4710 os         1 9IO      -0.318900
@<TRIPOS>BOND
     1     1     5 ar  
     2     1     6 ar  
     3     2     8 ar  
     4     2    11 ar  
     5     2    18 1   
     6     3    15 1   
     7     3    16 1   
     8     3    19 1   
     9     4    10 ar  
    10     4    11 ar  
    11     4    12 1   
    12     5    12 1   
    13     5    13 ar  
    14     6    17 ar  
    15     6    20 1   
    16     7    21 1   
    17     7    22 1   
    18     7    23 1   
    19     7    30 1   
    20     8     9 ar  
    21     8    30 1   
    22     9    10 ar  
    23     9    24 1   
    24    10    25 1   
    25    11    26 1   
    26    12    27 1   
    27    13    14 1   
    28    13    16 ar  
    29    14    15 2   
    30    14    28 1   
    31    15    29 1   
    32    16    17 ar  
@<TRIPOS>SUBSTRUCTURE
     1 9IO         1 TEMP              0 ****  ****    0 ROOT
