@<TRIPOS>MOLECULE
9IO
   30    32     1     0     0
SMALL
No Charge or Current Charge


@<TRIPOS>ATOM
      1 N1          72.5130    39.5750    -1.3910 nb         1 9IO      -0.287000
      2 C2          68.1990    41.9010    -3.5790 ca         1 9IO      -0.146500
      3 N3          72.2710    36.4610     1.3040 na         1 9IO      -0.314400
      4 C4          69.8150    40.7850    -2.1220 ca         1 9IO       0.267000
      5 C5          71.3460    39.1100    -0.9050 ca         1 9IO       0.435900
      6 C6          73.6380    38.9730    -0.9380 ca         1 9IO       0.176900
      7 C           69.3830    45.2860    -4.6030 c3         1 9IO       0.148900
      8 C1          69.0330    43.0260    -3.6720 ca         1 9IO       0.117100
      9 C12         70.2610    43.0370    -2.9770 ca         1 9IO      -0.146500
     10 C11         70.6440    41.9220    -2.2050 ca         1 9IO      -0.105500
     11 C3          68.5850    40.7900    -2.8060 ca         1 9IO      -0.105500
     12 N           70.1520    39.6620    -1.3550 nu         1 9IO      -0.926900
     13 C10         71.3460    38.0430     0.0050 ca         1 9IO      -0.256800
     14 C9          70.2750    37.3490     0.6630 cc         1 9IO      -0.209200
     15 C8          70.8640    36.3800     1.4580 cd         1 9IO      -0.174100
     16 C7          72.5340    37.4870     0.4100 ca         1 9IO       0.144500
     17 N2          73.7100    37.9470    -0.0560 nb         1 9IO      -0.223000
     18 H1          67.2490    41.8890    -4.1080 ha         1 9IO       0.122500
     19 H2          72.9680    35.8800     1.7610 hn         1 9IO       0.363000
     20 H3          74.5830    39.3500    -1.3250 h5         1 9IO       0.045100
     21 H4          68.8600    45.9960    -5.2550 h1         1 9IO       0.039700
     22 H5          69.5500    45.7740    -3.6340 h1         1 9IO       0.039700
     23 H6          70.3560    45.0600    -5.0570 h1         1 9IO       0.039700
     24 H7          70.9260    43.8950    -3.0170 ha         1 9IO       0.122500
     25 H8          71.5810    41.9610    -1.6590 ha         1 9IO       0.128500
     26 H9          67.9270    39.9280    -2.7460 ha         1 9IO       0.128500
     27 H10         69.3580    39.0690    -1.1240 hn         1 9IO       0.498000
     28 H11         69.2050    37.5320     0.5800 ha         1 9IO       0.203000
     29 H12         70.3940    35.6490     2.1150 h4         1 9IO       0.218000
     30 O           68.6030    44.0870    -4.4430 os         1 9IO      -0.342100
@<TRIPOS>BOND
     1     1     5 ar  
     2     1     6 ar  
     3     2     8 ar  
     4     2    11 ar  
     5     2    18 1   
     6     3    15 1   
     7     3    16 1   
     8     3    19 1   
     9     4    10 ar  
    10     4    11 ar  
    11     4    12 1   
    12     5    12 1   
    13     5    13 ar  
    14     6    17 ar  
    15     6    20 1   
    16     7    21 1   
    17     7    22 1   
    18     7    23 1   
    19     7    30 1   
    20     8     9 ar  
    21     8    30 1   
    22     9    10 ar  
    23     9    24 1   
    24    10    25 1   
    25    11    26 1   
    26    12    27 1   
    27    13    14 1   
    28    13    16 ar  
    29    14    15 2   
    30    14    28 1   
    31    15    29 1   
    32    16    17 ar  
@<TRIPOS>SUBSTRUCTURE
     1 9IO         1 TEMP              0 ****  ****    0 ROOT
