@<TRIPOS>MOLECULE
9IP
   41    43     1     0     0
SMALL
bcc


@<TRIPOS>ATOM
      1 C1           8.5910    -3.8710    -0.8730 c3         1 9IP       0.123700
      2 O2           7.6380    -3.1510    -0.1120 os         1 9IP      -0.311900
      3 C3           6.3810    -3.0720    -0.5720 ca         1 9IP       0.026800
      4 C4           5.9360    -3.6230    -1.7730 ca         1 9IP       0.320200
      5 N5           4.6760    -3.5110    -2.1800 nb         1 9IP      -0.638000
      6 C6           3.8090    -2.8560    -1.4300 ca         1 9IP       0.374200
      7 C7           4.1490    -2.2600    -0.2120 cp         1 9IP      -0.114300
      8 C8           5.4630    -2.3790     0.2130 ca         1 9IP      -0.127000
      9 C9           3.1390    -1.5470     0.5920 cp         1 9IP      -0.038000
     10 C10          2.1600    -0.7670    -0.0200 ca         1 9IP      -0.107000
     11 C11          1.2120    -0.1030     0.7480 ca         1 9IP      -0.133000
     12 C12          1.2290    -0.2100     2.1290 ca         1 9IP      -0.100000
     13 C13          2.1980    -0.9890     2.7590 ca         1 9IP      -0.103300
     14 C14          2.2130    -1.1240     4.2570 c3         1 9IP       0.238100
     15 N15          2.3640     0.1740     4.8760 nu         1 9IP      -0.733600
     16 C16          2.3470     0.2700     6.2600 ca         1 9IP      -0.014700
     17 C17          2.1060    -0.7850     7.1210 ca         1 9IP      -0.136000
     18 C18          2.0940    -0.5650     8.5020 ca         1 9IP      -0.256300
     19 C19          2.3420     0.7060     8.9640 ca         1 9IP       0.405200
     20 N20          2.5630     1.7430     8.1490 nb         1 9IP      -0.719000
     21 C21          2.5560     1.5490     6.8460 ca         1 9IP       0.606200
     22 N22          2.8120     2.6230     6.0230 nv         1 9IP      -0.927500
     23 C23          3.1440    -1.6440     1.9850 ca         1 9IP      -0.106000
     24 H11A         9.5250    -3.8260    -0.3190 h1         1 9IP       0.044367
     25 H12A         8.7450    -3.4270    -1.8600 h1         1 9IP       0.044367
     26 H13          8.3040    -4.9180    -0.9960 h1         1 9IP       0.044367
     27 H4           6.6030    -4.1710    -2.4280 h4         1 9IP       0.023100
     28 H6           2.7880    -2.8120    -1.7940 h4         1 9IP       0.024100
     29 H8           5.7930    -1.9260     1.1400 ha         1 9IP       0.152000
     30 H10          2.1460    -0.6570    -1.0970 ha         1 9IP       0.136000
     31 H11          0.4590     0.5030     0.2610 ha         1 9IP       0.135000
     32 H12          0.4850     0.3080     2.7220 ha         1 9IP       0.142000
     33 H141         1.2660    -1.5580     4.5920 h1         1 9IP       0.044700
     34 H142         3.0010    -1.8290     4.5550 h1         1 9IP       0.044700
     35 HN15         3.1110     0.7130     4.4560 hn         1 9IP       0.407800
     36 H17          1.9360    -1.7820     6.7380 ha         1 9IP       0.134000
     37 H18          1.9070    -1.3780     9.1890 ha         1 9IP       0.140000
     38 H19          2.3570     0.9190    10.0260 h4         1 9IP       0.018100
     39 H221         2.7730     3.5130     6.4950 hn         1 9IP       0.401800
     40 H222         2.2940     2.6360     5.1560 hn         1 9IP       0.401800
     41 H23          3.8920    -2.2570     2.4760 ha         1 9IP       0.134000
@<TRIPOS>BOND
     1     1     2 1   
     2     1    24 1   
     3     1    25 1   
     4     1    26 1   
     5     2     3 1   
     6     3     4 ar  
     7     3     8 ar  
     8     4     5 ar  
     9     4    27 1   
    10     5     6 ar  
    11     6     7 ar  
    12     6    28 1   
    13     7     8 ar  
    14     7     9 1   
    15     8    29 1   
    16     9    10 ar  
    17     9    23 ar  
    18    10    11 ar  
    19    10    30 1   
    20    11    12 ar  
    21    11    31 1   
    22    12    13 ar  
    23    12    32 1   
    24    13    14 1   
    25    13    23 ar  
    26    14    15 1   
    27    14    33 1   
    28    14    34 1   
    29    15    16 1   
    30    15    35 1   
    31    16    17 ar  
    32    16    21 ar  
    33    17    18 ar  
    34    17    36 1   
    35    18    19 ar  
    36    18    37 1   
    37    19    20 ar  
    38    19    38 1   
    39    20    21 ar  
    40    21    22 1   
    41    22    39 1   
    42    22    40 1   
    43    23    41 1   
@<TRIPOS>SUBSTRUCTURE
     1 9IP         1 TEMP              0 ****  ****    0 ROOT
