@<TRIPOS>MOLECULE
9IP
   41    43     1     0     0
SMALL
No Charge or Current Charge


@<TRIPOS>ATOM
      1 C1           8.7540    -3.6040    -0.4680 c3         1 9IP       0.146900
      2 O2           7.6370    -3.0060     0.2150 os         1 9IP      -0.335100
      3 C3           6.3840    -2.9260    -0.3670 ca         1 9IP       0.092100
      4 C4           6.0990    -3.4160    -1.6680 ca         1 9IP       0.254900
      5 N5           4.8730    -3.3320    -2.2380 nb         1 9IP      -0.638000
      6 C6           3.8830    -2.7500    -1.5190 ca         1 9IP       0.308900
      7 C7           4.0520    -2.2250    -0.2080 cp         1 9IP      -0.049000
      8 C8           5.3460    -2.3270     0.3640 ca         1 9IP      -0.109000
      9 C9           2.9130    -1.5950     0.5350 cp         1 9IP      -0.038000
     10 C10          1.8960    -0.8830    -0.1500 ca         1 9IP      -0.089000
     11 C11          0.8300    -0.2910     0.5470 ca         1 9IP      -0.115000
     12 C12          0.7550    -0.3990     1.9450 ca         1 9IP      -0.082000
     13 C13          1.7470    -1.1020     2.6520 ca         1 9IP      -0.103300
     14 C14          1.6670    -1.2270     4.1670 c3         1 9IP       0.238100
     15 N15          2.3770    -0.1070     4.7990 nu         1 9IP      -0.927200
     16 C16          2.5120     0.1600     6.1890 ca         1 9IP       0.189000
     17 C17          2.0800    -0.7840     7.1420 ca         1 9IP      -0.118000
     18 C18          2.2460    -0.4870     8.5080 ca         1 9IP      -0.173000
     19 C19          2.8330     0.7340     8.8910 ca         1 9IP       0.339900
     20 N20          3.2530     1.6620     8.0020 nb         1 9IP      -0.719000
     21 C21          3.0930     1.3730     6.7090 ca         1 9IP       0.540900
     22 N22          3.5370     2.4130     5.9630 nv         1 9IP      -1.037900
     23 C23          2.8160    -1.6910     1.9470 ca         1 9IP      -0.088000
     24 H11A         9.6490    -3.5680     0.1640 h1         1 9IP       0.044367
     25 H12A         8.9730    -3.0680    -1.4000 h1         1 9IP       0.044367
     26 H13          8.5480    -4.6560    -0.7060 h1         1 9IP       0.044367
     27 H4           6.8660    -3.8890    -2.2780 h4         1 9IP       0.023100
     28 H6           2.9100    -2.7130    -2.0060 h4         1 9IP       0.024100
     29 H8           5.5500    -1.9330     1.3560 ha         1 9IP       0.134000
     30 H10          1.9390    -0.7740    -1.2310 ha         1 9IP       0.118000
     31 H11          0.0630     0.2550     0.0030 ha         1 9IP       0.117000
     32 H12         -0.0730     0.0630     2.4780 ha         1 9IP       0.124000
     33 H141         0.6120    -1.2300     4.4780 h1         1 9IP       0.044700
     34 H142         2.1100    -2.1830     4.4790 h1         1 9IP       0.044700
     35 HN15         2.8400     0.5460     4.1640 hn         1 9IP       0.463000
     36 H17          1.6320    -1.7270     6.8410 ha         1 9IP       0.116000
     37 H18          1.9270    -1.1940     9.2690 ha         1 9IP       0.122000
     38 H19          2.9670     0.9760     9.9450 h4         1 9IP       0.018100
     39 H221         3.7310     3.2540     6.4930 hn         1 9IP       0.457000
     40 H222         3.1090     2.5510     5.0550 hn         1 9IP       0.457000
     41 H23          3.5710    -2.2410     2.5030 ha         1 9IP       0.116000
@<TRIPOS>BOND
     1     1     2 1   
     2     1    24 1   
     3     1    25 1   
     4     1    26 1   
     5     2     3 1   
     6     3     4 ar  
     7     3     8 ar  
     8     4     5 ar  
     9     4    27 1   
    10     5     6 ar  
    11     6     7 ar  
    12     6    28 1   
    13     7     8 ar  
    14     7     9 1   
    15     8    29 1   
    16     9    10 ar  
    17     9    23 ar  
    18    10    11 ar  
    19    10    30 1   
    20    11    12 ar  
    21    11    31 1   
    22    12    13 ar  
    23    12    32 1   
    24    13    14 1   
    25    13    23 ar  
    26    14    15 1   
    27    14    33 1   
    28    14    34 1   
    29    15    16 1   
    30    15    35 1   
    31    16    17 ar  
    32    16    21 ar  
    33    17    18 ar  
    34    17    36 1   
    35    18    19 ar  
    36    18    37 1   
    37    19    20 ar  
    38    19    38 1   
    39    20    21 ar  
    40    21    22 1   
    41    22    39 1   
    42    22    40 1   
    43    23    41 1   
@<TRIPOS>SUBSTRUCTURE
     1 9IP         1 TEMP              0 ****  ****    0 ROOT
