@<TRIPOS>MOLECULE
9IQ
   69    72     1     0     0
SMALL
abcg2


@<TRIPOS>ATOM
      1 O6         -15.6140   -35.5850     0.2150 os         1 9IQ      -0.478300
      2 C2         -14.3140   -35.8640     0.1010 ca         1 9IQ       0.570300
      3 C3         -13.4150   -34.8640     0.5980 ca         1 9IQ      -0.049000
      4 C4         -13.8640   -33.6630     1.1640 ca         1 9IQ      -0.099000
      5 C5         -12.9530   -32.7360     1.6090 ca         1 9IQ       0.112100
      6 C6         -11.5750   -32.9800     1.4920 ca         1 9IQ      -0.159000
      7 C7         -11.1320   -34.1500     0.9320 ca         1 9IQ      -0.080000
      8 C8         -12.0360   -35.1320     0.4780 ca         1 9IQ      -0.075000
      9 C9         -11.6260   -36.3720    -0.1040 ca         1 9IQ       0.083100
     10 C10        -12.5890   -37.2410    -0.5460 ca         1 9IQ       0.313500
     11 N1         -13.9130   -36.9630    -0.4340 nb         1 9IQ      -0.700000
     12 C11        -12.3200   -38.6080    -1.1100 c          1 9IQ       0.500600
     13 O1         -13.0510   -39.5450    -0.8050 o          1 9IQ      -0.637100
     14 N2         -11.3000   -38.7250    -1.9600 ns         1 9IQ      -0.444900
     15 C12        -10.9070   -39.9680    -2.5720 c3         1 9IQ      -0.058000
     16 C13         -9.6750   -39.7660    -3.4810 c          1 9IQ       0.714000
     17 O2          -9.2620   -40.7930    -4.0450 o          1 9IQ      -0.728000
     18 O3          -9.2200   -38.6090    -3.5630 o          1 9IQ      -0.728000
     19 O4         -10.3190   -36.6860    -0.2380 oh         1 9IQ      -0.508100
     20 O5         -13.4570   -31.6050     2.1660 os         1 9IQ      -0.262200
     21 C14        -12.6480   -30.5250     2.4090 ca         1 9IQ       0.124100
     22 C15        -12.2590   -29.7040     1.3500 ca         1 9IQ      -0.090300
     23 C16        -11.4990   -28.5840     1.6530 ca         1 9IQ      -0.067500
     24 C17        -11.1640   -28.2690     2.9670 ca         1 9IQ      -0.169600
     25 C18        -11.5720   -29.1130     3.9960 ca         1 9IQ      -0.067500
     26 C19        -12.3090   -30.2610     3.7340 ca         1 9IQ      -0.090300
     27 C1         -16.5680   -36.5420    -0.2470 c3         1 9IQ       0.175600
     28 C20        -10.5100   -26.3130     4.4970 ca         1 9IQ      -0.160600
     29 C21        -11.7590   -26.2060     5.1020 ca         1 9IQ      -0.070000
     30 C22        -11.9300   -25.4360     6.2480 ca         1 9IQ      -0.086300
     31 C23        -10.8200   -24.7880     6.7820 ca         1 9IQ      -0.091000
     32 C24         -9.5580   -24.8810     6.1980 ca         1 9IQ      -0.086300
     33 C25         -9.4190   -25.6370     5.0410 ca         1 9IQ      -0.070000
     34 C26        -12.7420   -31.1790     4.8380 c3         1 9IQ      -0.045800
     35 C27        -12.6550   -30.0120    -0.0630 c3         1 9IQ      -0.045800
     36 C28        -10.3260   -27.0670     3.2280 c          1 9IQ       0.596300
     37 O29         -9.5040   -26.7040     2.4090 o          1 9IQ      -0.519100
     38 C29        -16.7570   -37.6980     0.7140 c3         1 9IQ      -0.123100
     39 C30         -8.3760   -24.1940     6.8160 c3         1 9IQ      -0.045800
     40 C31        -13.2750   -25.3250     6.9060 c3         1 9IQ      -0.045800
     41 H1         -14.9220   -33.4590     1.2520 ha         1 9IQ       0.142000
     42 H2         -10.8520   -32.2490     1.8330 ha         1 9IQ       0.123000
     43 H3         -10.0620   -34.2870     0.8410 ha         1 9IQ       0.117000
     44 H4         -10.7230   -37.9370    -2.2180 hn         1 9IQ       0.352500
     45 H5         -11.7250   -40.3850    -3.1690 h1         1 9IQ       0.035700
     46 H6         -10.6710   -40.7190    -1.8110 h1         1 9IQ       0.035700
     47 H8          -9.7850   -36.2980     0.4640 ho         1 9IQ       0.459000
     48 H9         -11.1860   -27.9310     0.8470 ha         1 9IQ       0.126000
     49 H10        -11.2970   -28.8950     5.0200 ha         1 9IQ       0.126000
     50 H11        -17.4940   -35.9750    -0.3440 h1         1 9IQ       0.055200
     51 H12        -16.2880   -36.9030    -1.2380 h1         1 9IQ       0.055200
     52 H13        -12.6200   -26.6990     4.6660 ha         1 9IQ       0.125500
     53 H14        -10.9420   -24.1840     7.6750 ha         1 9IQ       0.108000
     54 H15         -8.4490   -25.7090     4.5630 ha         1 9IQ       0.125500
     55 H16        -12.3660   -32.1930     4.6920 hc         1 9IQ       0.050700
     56 H17        -12.3710   -30.8230     5.7980 hc         1 9IQ       0.050700
     57 H18        -13.8280   -31.2430     4.9030 hc         1 9IQ       0.050700
     58 H19        -12.1370   -30.8950    -0.4450 hc         1 9IQ       0.050700
     59 H20        -13.7250   -30.2020    -0.1520 hc         1 9IQ       0.050700
     60 H21        -12.4060   -29.1800    -0.7190 hc         1 9IQ       0.050700
     61 H22        -17.5800   -38.3220     0.3610 hc         1 9IQ       0.048033
     62 H23        -15.8670   -38.3210     0.7770 hc         1 9IQ       0.048033
     63 H24        -17.0120   -37.3450     1.7130 hc         1 9IQ       0.048033
     64 H25         -7.9130   -24.8260     7.5760 hc         1 9IQ       0.042533
     65 H26         -7.6120   -23.9680     6.0730 hc         1 9IQ       0.042533
     66 H27         -8.6640   -23.2620     7.3030 hc         1 9IQ       0.042533
     67 H28        -13.3920   -26.0850     7.6810 hc         1 9IQ       0.042533
     68 H29        -13.4080   -24.3550     7.3830 hc         1 9IQ       0.042533
     69 H30        -14.0830   -25.4660     6.1890 hc         1 9IQ       0.042533
@<TRIPOS>BOND
     1     1     2 1   
     2     1    27 1   
     3     2     3 ar  
     4     2    11 ar  
     5     3     4 ar  
     6     3     8 ar  
     7     4     5 ar  
     8     4    41 1   
     9     5     6 ar  
    10     5    20 1   
    11     6     7 ar  
    12     6    42 1   
    13     7     8 ar  
    14     7    43 1   
    15     8     9 ar  
    16     9    10 ar  
    17     9    19 1   
    18    10    11 ar  
    19    10    12 1   
    20    12    13 2   
    21    12    14 1   
    22    14    15 1   
    23    14    44 1   
    24    15    16 1   
    25    15    45 1   
    26    15    46 1   
    27    16    17 1   
    28    16    18 1   
    29    19    47 1   
    30    20    21 1   
    31    21    22 ar  
    32    21    26 ar  
    33    22    23 ar  
    34    22    35 1   
    35    23    24 ar  
    36    23    48 1   
    37    24    25 ar  
    38    24    36 1   
    39    25    26 ar  
    40    25    49 1   
    41    26    34 1   
    42    27    38 1   
    43    27    50 1   
    44    27    51 1   
    45    28    29 ar  
    46    28    33 ar  
    47    28    36 1   
    48    29    30 ar  
    49    29    52 1   
    50    30    31 ar  
    51    30    40 1   
    52    31    32 ar  
    53    31    53 1   
    54    32    33 ar  
    55    32    39 1   
    56    33    54 1   
    57    34    55 1   
    58    34    56 1   
    59    34    57 1   
    60    35    58 1   
    61    35    59 1   
    62    35    60 1   
    63    36    37 2   
    64    38    61 1   
    65    38    62 1   
    66    38    63 1   
    67    39    64 1   
    68    39    65 1   
    69    39    66 1   
    70    40    67 1   
    71    40    68 1   
    72    40    69 1   
@<TRIPOS>SUBSTRUCTURE
     1 9IQ         1 TEMP              0 ****  ****    0 ROOT
