@<TRIPOS>MOLECULE
9IQ
   69    72     1     0     0
SMALL
No Charge or Current Charge


@<TRIPOS>ATOM
      1 O6         -15.8370   -35.5960     0.0120 os         1 9IQ      -0.478300
      2 C2         -14.4790   -35.8190    -0.1140 ca         1 9IQ       0.570300
      3 C3         -13.5820   -34.8140     0.3140 ca         1 9IQ      -0.049000
      4 C4         -14.0560   -33.6110     0.8870 ca         1 9IQ      -0.099000
      5 C5         -13.1610   -32.6200     1.3100 ca         1 9IQ       0.112100
      6 C6         -11.7770   -32.8260     1.1690 ca         1 9IQ      -0.159000
      7 C7         -11.2940   -34.0160     0.6020 ca         1 9IQ      -0.080000
      8 C8         -12.1920   -35.0230     0.1670 ca         1 9IQ      -0.075000
      9 C9         -11.7480   -36.2400    -0.4140 ca         1 9IQ       0.083100
     10 C10        -12.7230   -37.2080    -0.8330 ca         1 9IQ       0.313500
     11 N1         -14.0610   -36.9690    -0.6760 nb         1 9IQ      -0.700000
     12 C11        -12.3480   -38.5710    -1.4830 c          1 9IQ       0.500600
     13 O1         -13.1950   -39.3810    -1.8610 o          1 9IQ      -0.637100
     14 N2         -11.0080   -38.8820    -1.6390 ns         1 9IQ      -0.444900
     15 C12        -10.4790   -40.1370    -2.2250 c3         1 9IQ      -0.058000
     16 C13         -8.9410   -40.0800    -2.4320 c          1 9IQ       0.714000
     17 O2          -8.4910   -40.4290    -3.5140 o          1 9IQ      -0.728000
     18 O3          -8.2490   -39.6400    -1.5240 o          1 9IQ      -0.728000
     19 O4         -10.3970   -36.4560    -0.5640 oh         1 9IQ      -0.508100
     20 O5         -13.6750   -31.4660     1.8630 os         1 9IQ      -0.262200
     21 C14        -12.8940   -30.3720     2.1600 ca         1 9IQ       0.124100
     22 C15        -12.5640   -29.4470     1.1460 ca         1 9IQ      -0.090300
     23 C16        -11.7580   -28.3370     1.4610 ca         1 9IQ      -0.067500
     24 C17        -11.2920   -28.1320     2.7770 ca         1 9IQ      -0.169600
     25 C18        -11.6210   -29.0740     3.7770 ca         1 9IQ      -0.067500
     26 C19        -12.4250   -30.1890     3.4770 ca         1 9IQ      -0.090300
     27 C1         -16.8090   -36.6570    -0.0910 c3         1 9IQ       0.175600
     28 C20        -10.4910   -26.3060     4.4600 ca         1 9IQ      -0.160600
     29 C21        -11.7000   -26.2840     5.1910 ca         1 9IQ      -0.070000
     30 C22        -11.7580   -25.6860     6.4630 ca         1 9IQ      -0.086300
     31 C23        -10.6030   -25.0960     7.0080 ca         1 9IQ      -0.091000
     32 C24         -9.3970   -25.0910     6.2840 ca         1 9IQ      -0.086300
     33 C25         -9.3470   -25.6920     5.0130 ca         1 9IQ      -0.070000
     34 C26        -12.7700   -31.1950     4.5700 c3         1 9IQ      -0.045800
     35 C27        -13.0640   -29.6390    -0.2820 c3         1 9IQ      -0.045800
     36 C28        -10.4180   -26.9370     3.0880 c          1 9IQ       0.596300
     37 O29         -9.6580   -26.4860     2.2370 o          1 9IQ      -0.519100
     38 C29        -16.7680   -37.4920     1.2040 c3         1 9IQ      -0.123100
     39 C30         -8.1530   -24.4460     6.8760 c3         1 9IQ      -0.045800
     40 C31        -13.0640   -25.6800     7.2440 c3         1 9IQ      -0.045800
     41 H1         -15.1220   -33.4350     1.0080 ha         1 9IQ       0.142000
     42 H2         -11.0650   -32.0720     1.4970 ha         1 9IQ       0.123000
     43 H3         -10.2180   -34.1330     0.5110 ha         1 9IQ       0.117000
     44 H4         -10.3420   -38.1900    -1.3020 hn         1 9IQ       0.352500
     45 H5         -10.9640   -40.3150    -3.1940 h1         1 9IQ       0.035700
     46 H6         -10.7090   -40.9740    -1.5540 h1         1 9IQ       0.035700
     47 H8          -9.9060   -35.6800    -0.2220 ho         1 9IQ       0.459000
     48 H9         -11.4980   -27.6230     0.6810 ha         1 9IQ       0.126000
     49 H10        -11.2400   -28.9490     4.7880 ha         1 9IQ       0.126000
     50 H11        -17.8150   -36.2300    -0.1960 h1         1 9IQ       0.055200
     51 H12        -16.6290   -37.2940    -0.9680 h1         1 9IQ       0.055200
     52 H13        -12.6020   -26.7230     4.7690 ha         1 9IQ       0.125500
     53 H14        -10.6440   -24.6380     7.9930 ha         1 9IQ       0.108000
     54 H15         -8.4110   -25.6900     4.4570 ha         1 9IQ       0.125500
     55 H16        -12.3350   -32.1770     4.3500 hc         1 9IQ       0.050700
     56 H17        -12.3950   -30.8790     5.5510 hc         1 9IQ       0.050700
     57 H18        -13.8560   -31.3220     4.6590 hc         1 9IQ       0.050700
     58 H19        -12.5580   -30.4840    -0.7640 hc         1 9IQ       0.050700
     59 H20        -14.1420   -29.8400    -0.3000 hc         1 9IQ       0.050700
     60 H21        -12.8870   -28.7510    -0.9000 hc         1 9IQ       0.050700
     61 H22        -17.5500   -38.2600     1.1820 hc         1 9IQ       0.048033
     62 H23        -15.8020   -37.9970     1.3200 hc         1 9IQ       0.048033
     63 H24        -16.9380   -36.8550     2.0800 hc         1 9IQ       0.048033
     64 H25         -7.5610   -25.1810     7.4350 hc         1 9IQ       0.042533
     65 H26         -7.5100   -24.0240     6.0940 hc         1 9IQ       0.042533
     66 H27         -8.4110   -23.6310     7.5630 hc         1 9IQ       0.042533
     67 H28        -13.1830   -26.6110     7.8110 hc         1 9IQ       0.042533
     68 H29        -13.1040   -24.8470     7.9550 hc         1 9IQ       0.042533
     69 H30        -13.9280   -25.5830     6.5750 hc         1 9IQ       0.042533
@<TRIPOS>BOND
     1     1     2 1   
     2     1    27 1   
     3     2     3 ar  
     4     2    11 ar  
     5     3     4 ar  
     6     3     8 ar  
     7     4     5 ar  
     8     4    41 1   
     9     5     6 ar  
    10     5    20 1   
    11     6     7 ar  
    12     6    42 1   
    13     7     8 ar  
    14     7    43 1   
    15     8     9 ar  
    16     9    10 ar  
    17     9    19 1   
    18    10    11 ar  
    19    10    12 1   
    20    12    13 2   
    21    12    14 1   
    22    14    15 1   
    23    14    44 1   
    24    15    16 1   
    25    15    45 1   
    26    15    46 1   
    27    16    17 1   
    28    16    18 1   
    29    19    47 1   
    30    20    21 1   
    31    21    22 ar  
    32    21    26 ar  
    33    22    23 ar  
    34    22    35 1   
    35    23    24 ar  
    36    23    48 1   
    37    24    25 ar  
    38    24    36 1   
    39    25    26 ar  
    40    25    49 1   
    41    26    34 1   
    42    27    38 1   
    43    27    50 1   
    44    27    51 1   
    45    28    29 ar  
    46    28    33 ar  
    47    28    36 1   
    48    29    30 ar  
    49    29    52 1   
    50    30    31 ar  
    51    30    40 1   
    52    31    32 ar  
    53    31    53 1   
    54    32    33 ar  
    55    32    39 1   
    56    33    54 1   
    57    34    55 1   
    58    34    56 1   
    59    34    57 1   
    60    35    58 1   
    61    35    59 1   
    62    35    60 1   
    63    36    37 2   
    64    38    61 1   
    65    38    62 1   
    66    38    63 1   
    67    39    64 1   
    68    39    65 1   
    69    39    66 1   
    70    40    67 1   
    71    40    68 1   
    72    40    69 1   
@<TRIPOS>SUBSTRUCTURE
     1 9IQ         1 TEMP              0 ****  ****    0 ROOT
