@<TRIPOS>MOLECULE
9IR
   26    26     1     0     0
SMALL
No Charge or Current Charge


@<TRIPOS>ATOM
      1 C9           6.7110    -2.4650   -13.0740 c2         1 9IR      -0.324000
      2 C7           5.5310    -1.8400   -12.9320 c2         1 9IR      -0.108400
      3 C8           4.2110    -2.5240   -13.2590 c3         1 9IR      -0.055900
      4 C            5.4640    -0.3890   -12.4340 c6         1 9IR      -0.026500
      5 C6           5.1270     0.6080   -13.5750 c6         1 9IR      -0.032200
      6 C5           4.8970     2.0240   -13.0570 c2         1 9IR      -0.221200
      7 C3           4.6620     2.3230   -11.7660 c2         1 9IR      -0.120400
      8 C4           4.4650     3.7420   -11.2670 c3         1 9IR      -0.051900
      9 C2           4.5970     1.2490   -10.6800 c6         1 9IR      -0.039200
     10 C1           4.4810    -0.1850   -11.2540 c6         1 9IR      -0.065400
     11 H1           7.6570    -1.9730   -12.8430 ha         1 9IR       0.162000
     12 H2           6.7760    -3.4940   -13.4280 ha         1 9IR       0.162000
     13 H3           3.6410    -1.9660   -14.0100 hc         1 9IR       0.039033
     14 H4           4.3710    -3.5320   -13.6600 hc         1 9IR       0.039033
     15 H5           3.5820    -2.6310   -12.3680 hc         1 9IR       0.039033
     16 H6           6.4630    -0.1170   -12.0640 hc         1 9IR       0.051700
     17 H7           4.2300     0.2860   -14.1190 hc         1 9IR       0.047700
     18 H8           5.9470     0.6130   -14.3060 hc         1 9IR       0.047700
     19 H9           4.9440     2.8140   -13.8080 ha         1 9IR       0.169000
     20 H10          3.4780     3.8640   -10.8050 hc         1 9IR       0.038367
     21 H11          5.2210     4.0030   -10.5170 hc         1 9IR       0.038367
     22 H12          4.5410     4.4730   -12.0810 hc         1 9IR       0.038367
     23 H13          5.4940     1.3230   -10.0490 hc         1 9IR       0.044700
     24 H14          3.7390     1.4360   -10.0190 hc         1 9IR       0.044700
     25 H15          3.4490    -0.3520   -11.5920 hc         1 9IR       0.042200
     26 H16          4.6770    -0.9190   -10.4610 hc         1 9IR       0.042200
@<TRIPOS>BOND
     1     1     2 2   
     2     1    11 1   
     3     1    12 1   
     4     2     3 1   
     5     2     4 1   
     6     3    13 1   
     7     3    14 1   
     8     3    15 1   
     9     4     5 1   
    10     4    10 1   
    11     4    16 1   
    12     5     6 1   
    13     5    17 1   
    14     5    18 1   
    15     6     7 2   
    16     6    19 1   
    17     7     8 1   
    18     7     9 1   
    19     8    20 1   
    20     8    21 1   
    21     8    22 1   
    22     9    10 1   
    23     9    23 1   
    24     9    24 1   
    25    10    25 1   
    26    10    26 1   
@<TRIPOS>SUBSTRUCTURE
     1 9IR         1 TEMP              0 ****  ****    0 ROOT
