@<TRIPOS>MOLECULE
9IR
   26    26     1     0     0
SMALL
abcg2


@<TRIPOS>ATOM
      1 C9           6.6840    -2.4510   -13.0190 c2         1 9IR      -0.324000
      2 C7           5.5230    -1.8060   -12.9190 c2         1 9IR      -0.108400
      3 C8           4.2260    -2.4710   -13.2800 c3         1 9IR      -0.055900
      4 C            5.4700    -0.3790   -12.4330 c6         1 9IR      -0.026500
      5 C6           5.1140     0.5990   -13.5570 c6         1 9IR      -0.032200
      6 C5           4.8650     1.9870   -13.0440 c2         1 9IR      -0.221200
      7 C3           4.6620     2.2910   -11.7620 c2         1 9IR      -0.120400
      8 C4           4.4650     3.7000   -11.2930 c3         1 9IR      -0.051900
      9 C2           4.6290     1.2290   -10.6990 c6         1 9IR      -0.039200
     10 C1           4.4990    -0.1780   -11.2680 c6         1 9IR      -0.065400
     11 H1           7.6210    -1.9800   -12.7460 ha         1 9IR       0.162000
     12 H2           6.7400    -3.4720   -13.3770 ha         1 9IR       0.162000
     13 H3           3.6520    -1.8800   -13.9960 hc         1 9IR       0.039033
     14 H4           4.3920    -3.4550   -13.7160 hc         1 9IR       0.039033
     15 H5           3.5890    -2.6000   -12.4020 hc         1 9IR       0.039033
     16 H6           6.4720    -0.1120   -12.0750 hc         1 9IR       0.051700
     17 H7           4.2320     0.2490   -14.1060 hc         1 9IR       0.047700
     18 H8           5.9240     0.6230   -14.2920 hc         1 9IR       0.047700
     19 H9           4.8650     2.7840   -13.7830 ha         1 9IR       0.169000
     20 H10          3.4910     3.8210   -10.8120 hc         1 9IR       0.038367
     21 H11          5.2150     3.9710   -10.5440 hc         1 9IR       0.038367
     22 H12          4.5320     4.4180   -12.1100 hc         1 9IR       0.038367
     23 H13          5.5370     1.3060   -10.0880 hc         1 9IR       0.044700
     24 H14          3.8010     1.4300   -10.0110 hc         1 9IR       0.044700
     25 H15          3.4730    -0.3370   -11.6130 hc         1 9IR       0.042200
     26 H16          4.6850    -0.9160   -10.4850 hc         1 9IR       0.042200
@<TRIPOS>BOND
     1     1     2 2   
     2     1    11 1   
     3     1    12 1   
     4     2     3 1   
     5     2     4 1   
     6     3    13 1   
     7     3    14 1   
     8     3    15 1   
     9     4     5 1   
    10     4    10 1   
    11     4    16 1   
    12     5     6 1   
    13     5    17 1   
    14     5    18 1   
    15     6     7 2   
    16     6    19 1   
    17     7     8 1   
    18     7     9 1   
    19     8    20 1   
    20     8    21 1   
    21     8    22 1   
    22     9    10 1   
    23     9    23 1   
    24     9    24 1   
    25    10    25 1   
    26    10    26 1   
@<TRIPOS>SUBSTRUCTURE
     1 9IR         1 TEMP              0 ****  ****    0 ROOT
