@<TRIPOS>MOLECULE
9IS
   41    44     1     0     0
SMALL
No Charge or Current Charge


@<TRIPOS>ATOM
      1 N1          25.3160   -29.8970    44.6350 na         1 9IS      -0.314400
      2 C2          17.7360   -23.2940    35.8750 ca         1 9IS      -0.158000
      3 N3          22.6230   -26.8900    43.8190 nb         1 9IS      -0.285000
      4 C4          19.8420   -22.5110    36.8130 ca         1 9IS      -0.158000
      5 C5          19.6610   -23.3490    37.9290 ca         1 9IS      -0.093000
      6 C6          18.5180   -24.1690    38.0120 ca         1 9IS       0.067100
      7 C           18.2060   -21.5310    33.6090 c3         1 9IS       0.147900
      8 C1          18.8870   -22.4800    35.7830 ca         1 9IS       0.131100
      9 C3          17.5540   -24.1320    36.9920 ca         1 9IS      -0.093000
     10 C7          19.3220   -25.6790    39.7240 ca         1 9IS       0.096100
     11 C18         19.2840   -25.8310    41.1190 ca         1 9IS      -0.121000
     12 C17         20.3010   -26.5440    41.7800 ca         1 9IS      -0.120500
     13 C10         21.3660   -27.1140    41.0520 ca         1 9IS       0.285000
     14 C9          21.3810   -26.9820    39.6510 ca         1 9IS      -0.120500
     15 C8          20.3660   -26.2690    38.9860 ca         1 9IS      -0.121000
     16 N           22.3910   -27.8430    41.6670 nu         1 9IS      -0.928900
     17 C11         22.9460   -27.8600    42.9410 ca         1 9IS       0.434900
     18 C16         23.2260   -26.9460    45.0330 ca         1 9IS       0.176900
     19 N2          24.1270   -27.8680    45.4520 nb         1 9IS      -0.221000
     20 C13         24.4440   -28.8200    44.5560 ca         1 9IS       0.144500
     21 C14         25.3320   -30.6400    43.4330 cc         1 9IS      -0.173100
     22 C15         24.4360   -29.9770    42.6130 cd         1 9IS      -0.209200
     23 C12         23.8780   -28.8390    43.3070 ca         1 9IS      -0.255800
     24 H1          25.8660   -30.1120    45.4610 hn         1 9IS       0.364000
     25 H2          16.9760   -23.2900    35.0990 ha         1 9IS       0.125000
     26 H3          20.7250   -21.8810    36.7480 ha         1 9IS       0.125000
     27 H4          20.4020   -23.3550    38.7250 ha         1 9IS       0.128500
     28 H5          18.5830   -20.8100    32.8730 h1         1 9IS       0.041367
     29 H6          18.0860   -22.4990    33.1050 h1         1 9IS       0.041367
     30 H7          17.2210   -21.1860    33.9490 h1         1 9IS       0.041367
     31 H8          16.6670   -24.7570    37.0640 ha         1 9IS       0.128500
     32 H9          18.4660   -25.3960    41.6880 ha         1 9IS       0.128000
     33 H10         20.2420   -26.6650    42.8570 ha         1 9IS       0.130500
     34 H11         22.1840   -27.4290    39.0720 ha         1 9IS       0.130500
     35 H12         20.3910   -26.1800    37.9020 ha         1 9IS       0.128000
     36 H13         22.8970   -28.4540    41.0310 hn         1 9IS       0.499000
     37 H14         22.9620   -26.1660    45.7440 h5         1 9IS       0.047100
     38 H15         25.9420   -31.5280    43.2730 h4         1 9IS       0.218000
     39 H16         24.1940   -30.2860    41.5980 ha         1 9IS       0.203000
     40 O1          18.3080   -24.9890    39.0990 os         1 9IS      -0.248200
     41 O           19.1200   -21.6390    34.7140 os         1 9IS      -0.340100
@<TRIPOS>BOND
     1     1    20 1   
     2     1    21 1   
     3     1    24 1   
     4     2     8 ar  
     5     2     9 ar  
     6     2    25 1   
     7     3    17 ar  
     8     3    18 ar  
     9     4     5 ar  
    10     4     8 ar  
    11     4    26 1   
    12     5     6 ar  
    13     5    27 1   
    14     6     9 ar  
    15     6    40 1   
    16     7    28 1   
    17     7    29 1   
    18     7    30 1   
    19     7    41 1   
    20     8    41 1   
    21     9    31 1   
    22    10    11 ar  
    23    10    15 ar  
    24    10    40 1   
    25    11    12 ar  
    26    11    32 1   
    27    12    13 ar  
    28    12    33 1   
    29    13    14 ar  
    30    13    16 1   
    31    14    15 ar  
    32    14    34 1   
    33    15    35 1   
    34    16    17 1   
    35    16    36 1   
    36    17    23 ar  
    37    18    19 ar  
    38    18    37 1   
    39    19    20 ar  
    40    20    23 ar  
    41    21    22 2   
    42    21    38 1   
    43    22    23 1   
    44    22    39 1   
@<TRIPOS>SUBSTRUCTURE
     1 9IS         1 TEMP              0 ****  ****    0 ROOT
