@<TRIPOS>MOLECULE
9IS
   41    44     1     0     0
SMALL
bcc


@<TRIPOS>ATOM
      1 N1          25.2680   -29.8570    44.4830 na         1 9IS      -0.264100
      2 C2          17.8890   -23.4580    35.9310 ca         1 9IS      -0.176000
      3 N3          22.4820   -27.0830    43.7440 nb         1 9IS      -0.811000
      4 C4          19.7350   -22.3220    36.9710 ca         1 9IS      -0.176000
      5 C5          19.5480   -23.0590    38.1240 ca         1 9IS      -0.111000
      6 C6          18.5310   -24.0080    38.1840 ca         1 9IS       0.067100
      7 C           18.3840   -21.9370    33.6230 c3         1 9IS       0.124700
      8 C1          18.9090   -22.5150    35.8610 ca         1 9IS       0.131100
      9 C3          17.7100   -24.2060    37.0910 ca         1 9IS      -0.111000
     10 C7          19.3180   -25.4610    39.8550 ca         1 9IS       0.096100
     11 C18         19.3970   -25.5680    41.2350 ca         1 9IS      -0.139000
     12 C17         20.3780   -26.3440    41.8340 ca         1 9IS      -0.138500
     13 C10         21.3140   -27.0200    41.0500 ca         1 9IS       0.146600
     14 C9          21.2270   -26.8990    39.6610 ca         1 9IS      -0.138500
     15 C8          20.2390   -26.1360    39.0640 ca         1 9IS      -0.139000
     16 N           22.3160   -27.8550    41.5510 nu         1 9IS      -0.735300
     17 C11         22.8610   -27.9260    42.7900 ca         1 9IS       0.763200
     18 C16         23.0470   -27.1810    44.9490 ca         1 9IS       0.702900
     19 N2          23.9700   -28.0300    45.3460 nb         1 9IS      -0.747000
     20 C13         24.3460   -28.8720    44.3790 ca         1 9IS       0.472800
     21 C14         25.3700   -30.5090    43.2810 cc         1 9IS      -0.123100
     22 C15         24.5110   -29.9520    42.3810 cd         1 9IS      -0.159200
     23 C12         23.8440   -28.8960    43.0720 ca         1 9IS      -0.386400
     24 H1          25.7940   -30.0760    45.3140 hn         1 9IS       0.313700
     25 H2          17.2250   -23.6380    35.0960 ha         1 9IS       0.143000
     26 H3          20.5260   -21.5840    36.9250 ha         1 9IS       0.143000
     27 H4          20.1950   -22.8920    38.9770 ha         1 9IS       0.146500
     28 H5          18.7660   -21.2450    32.8760 h1         1 9IS       0.041367
     29 H6          18.4640   -22.9550    33.2330 h1         1 9IS       0.041367
     30 H7          17.3290   -21.7120    33.8030 h1         1 9IS       0.041367
     31 H8          16.9180   -24.9430    37.1350 ha         1 9IS       0.146500
     32 H9          18.6800   -25.0460    41.8570 ha         1 9IS       0.146000
     33 H10         20.4140   -26.4100    42.9080 ha         1 9IS       0.148500
     34 H11         21.9400   -27.4200    39.0310 ha         1 9IS       0.148500
     35 H12         20.1980   -26.0750    37.9840 ha         1 9IS       0.146000
     36 H13         22.7370   -28.4600    40.8630 hn         1 9IS       0.443800
     37 H14         22.6970   -26.4670    45.6870 h5         1 9IS       0.047100
     38 H15         26.0560   -31.3320    43.1610 h4         1 9IS       0.168000
     39 H16         24.3780   -30.2660    41.3580 ha         1 9IS       0.153000
     40 O1          18.2940   -24.7230    39.3310 os         1 9IS      -0.248200
     41 O           19.1700   -21.7520    34.7820 os         1 9IS      -0.316900
@<TRIPOS>BOND
     1     1    20 1   
     2     1    21 1   
     3     1    24 1   
     4     2     8 ar  
     5     2     9 ar  
     6     2    25 1   
     7     3    17 ar  
     8     3    18 ar  
     9     4     5 ar  
    10     4     8 ar  
    11     4    26 1   
    12     5     6 ar  
    13     5    27 1   
    14     6     9 ar  
    15     6    40 1   
    16     7    28 1   
    17     7    29 1   
    18     7    30 1   
    19     7    41 1   
    20     8    41 1   
    21     9    31 1   
    22    10    11 ar  
    23    10    15 ar  
    24    10    40 1   
    25    11    12 ar  
    26    11    32 1   
    27    12    13 ar  
    28    12    33 1   
    29    13    14 ar  
    30    13    16 1   
    31    14    15 ar  
    32    14    34 1   
    33    15    35 1   
    34    16    17 1   
    35    16    36 1   
    36    17    23 ar  
    37    18    19 ar  
    38    18    37 1   
    39    19    20 ar  
    40    20    23 ar  
    41    21    22 2   
    42    21    38 1   
    43    22    23 1   
    44    22    39 1   
@<TRIPOS>SUBSTRUCTURE
     1 9IS         1 TEMP              0 ****  ****    0 ROOT
