@<TRIPOS>MOLECULE
9IT
   63    66     1     0     0
SMALL
No Charge or Current Charge


@<TRIPOS>ATOM
      1 O6         -14.5820   -34.3710    -0.1030 os         1 9IT      -0.472300
      2 C2         -13.2920   -34.8560    -0.0380 ca         1 9IT       0.550300
      3 C3         -12.3520   -34.1940     0.7930 ca         1 9IT      -0.035000
      4 C4         -12.7110   -33.0550     1.5480 ca         1 9IT      -0.105000
      5 C5         -11.7670   -32.4100     2.3610 ca         1 9IT       0.111100
      6 C6         -10.4500   -32.9060     2.4330 ca         1 9IT      -0.171000
      7 C7         -10.0820   -34.0370     1.6870 ca         1 9IT      -0.048000
      8 C8         -11.0280   -34.6860     0.8630 ca         1 9IT      -0.060000
      9 C9         -10.6910   -35.8260     0.0990 ca         1 9IT       0.170100
     10 C10        -11.6940   -36.4320    -0.7090 ca         1 9IT       0.193500
     11 N1         -12.9710   -35.9470    -0.7700 nb         1 9IT      -0.712000
     12 C11        -11.3380   -37.6680    -1.5410 c          1 9IT       0.515600
     13 O1         -10.2130   -38.1670    -1.5450 o          1 9IT      -0.670100
     14 N2         -12.3670   -38.1940    -2.2950 ns         1 9IT      -0.401900
     15 C12        -12.2680   -39.3870    -3.1640 c3         1 9IT      -0.066000
     16 C13        -13.5230   -39.5510    -4.0580 c          1 9IT       0.713000
     17 O2         -14.6230   -39.5210    -3.5220 o          1 9IT      -0.720500
     18 O3         -13.3630   -39.6550    -5.2650 o          1 9IT      -0.720500
     19 O4          -9.4140   -36.3380     0.1380 oh         1 9IT      -0.567100
     20 O5         -12.1660   -31.3040     3.0780 os         1 9IT      -0.259200
     21 C14        -11.2720   -30.4600     3.7000 ca         1 9IT       0.128100
     22 C15        -10.5630   -29.5010     2.9440 ca         1 9IT      -0.094800
     23 C16         -9.6450   -28.6540     3.5920 ca         1 9IT      -0.065000
     24 C17         -9.4250   -28.7560     4.9830 ca         1 9IT      -0.175600
     25 C18        -10.1610   -29.7020     5.7270 ca         1 9IT      -0.065000
     26 C19        -11.0820   -30.5580     5.0930 ca         1 9IT      -0.094800
     27 C1         -15.5820   -35.0010    -0.9280 c3         1 9IT       0.159900
     28 C20         -7.2050   -27.3850     4.9530 ca         1 9IT      -0.165600
     29 C21         -6.5740   -28.2130     3.9950 ca         1 9IT      -0.072000
     30 C22         -5.4140   -27.7820     3.3250 ca         1 9IT      -0.084300
     31 C23         -4.8720   -26.5180     3.6170 ca         1 9IT      -0.089000
     32 C24         -5.4800   -25.6960     4.5790 ca         1 9IT      -0.123000
     33 C25         -6.6370   -26.1280     5.2490 ca         1 9IT      -0.067000
     34 C26        -11.8540   -31.5870     5.9110 c3         1 9IT      -0.044300
     35 C27        -10.7780   -29.3710     1.4390 c3         1 9IT      -0.044300
     36 C28         -8.4460   -27.8430     5.6870 c          1 9IT       0.598300
     37 O29         -8.6560   -27.4790     6.8390 o          1 9IT      -0.525100
     38 C30         -4.7530   -28.6810     2.2900 c3         1 9IT      -0.048800
     39 H1         -13.7230   -32.6600     1.5090 ha         1 9IT       0.141000
     40 H2          -9.7070   -32.4250     3.0640 ha         1 9IT       0.120000
     41 H3          -9.0600   -34.4040     1.7550 ha         1 9IT       0.135000
     42 H4         -13.2600   -37.7170    -2.2130 hn         1 9IT       0.319500
     43 H5         -12.1640   -40.2830    -2.5390 h1         1 9IT       0.039700
     44 H6         -11.3810   -39.2960    -3.8040 h1         1 9IT       0.039700
     45 H8          -9.4110   -37.1300    -0.4710 ho         1 9IT       0.541000
     46 H9          -9.1110   -27.9050     3.0110 ha         1 9IT       0.124500
     47 H10        -10.0080   -29.7790     6.8020 ha         1 9IT       0.124500
     48 H11        -16.5380   -34.4690    -0.8420 h1         1 9IT       0.044367
     49 H12        -15.2820   -34.9920    -1.9840 h1         1 9IT       0.044367
     50 H13        -15.7450   -36.0430    -0.6200 h1         1 9IT       0.044367
     51 H14         -6.9770   -29.2000     3.7760 ha         1 9IT       0.123000
     52 H15         -3.9770   -26.1730     3.1030 ha         1 9IT       0.111000
     53 H16         -5.0540   -24.7210     4.8080 ha         1 9IT       0.113000
     54 H17         -7.0970   -25.4790     5.9920 ha         1 9IT       0.126000
     55 H18        -11.6110   -32.6060     5.5870 hc         1 9IT       0.050033
     56 H19        -11.6230   -31.5180     6.9810 hc         1 9IT       0.050033
     57 H20        -12.9350   -31.4480     5.7980 hc         1 9IT       0.050033
     58 H21        -10.3170   -30.2100     0.9040 hc         1 9IT       0.050033
     59 H22        -11.8460   -29.3610     1.1900 hc         1 9IT       0.050033
     60 H23        -10.3430   -28.4470     1.0430 hc         1 9IT       0.050033
     61 H24         -4.8160   -29.7370     2.5820 hc         1 9IT       0.046033
     62 H25         -5.2390   -28.5740     1.3140 hc         1 9IT       0.046033
     63 H26         -3.6910   -28.4380     2.1650 hc         1 9IT       0.046033
@<TRIPOS>BOND
     1     1     2 1   
     2     1    27 1   
     3     2     3 ar  
     4     2    11 ar  
     5     3     4 ar  
     6     3     8 ar  
     7     4     5 ar  
     8     4    39 1   
     9     5     6 ar  
    10     5    20 1   
    11     6     7 ar  
    12     6    40 1   
    13     7     8 ar  
    14     7    41 1   
    15     8     9 ar  
    16     9    10 ar  
    17     9    19 1   
    18    10    11 ar  
    19    10    12 1   
    20    12    13 2   
    21    12    14 1   
    22    14    15 1   
    23    14    42 1   
    24    15    16 1   
    25    15    43 1   
    26    15    44 1   
    27    16    17 1   
    28    16    18 1   
    29    19    45 1   
    30    20    21 1   
    31    21    22 ar  
    32    21    26 ar  
    33    22    23 ar  
    34    22    35 1   
    35    23    24 ar  
    36    23    46 1   
    37    24    25 ar  
    38    24    36 1   
    39    25    26 ar  
    40    25    47 1   
    41    26    34 1   
    42    27    48 1   
    43    27    49 1   
    44    27    50 1   
    45    28    29 ar  
    46    28    33 ar  
    47    28    36 1   
    48    29    30 ar  
    49    29    51 1   
    50    30    31 ar  
    51    30    38 1   
    52    31    32 ar  
    53    31    52 1   
    54    32    33 ar  
    55    32    53 1   
    56    33    54 1   
    57    34    55 1   
    58    34    56 1   
    59    34    57 1   
    60    35    58 1   
    61    35    59 1   
    62    35    60 1   
    63    36    37 2   
    64    38    61 1   
    65    38    62 1   
    66    38    63 1   
@<TRIPOS>SUBSTRUCTURE
     1 9IT         1 TEMP              0 ****  ****    0 ROOT
