@<TRIPOS>MOLECULE
9IT
   63    66     1     0     0
SMALL
abcg2


@<TRIPOS>ATOM
      1 O6         -14.5920   -34.3530     0.2750 os         1 9IT      -0.472300
      2 C2         -13.3600   -34.8650     0.3020 ca         1 9IT       0.550300
      3 C3         -12.4640   -34.2880     1.2670 ca         1 9IT      -0.035000
      4 C4         -12.8310   -33.2170     2.0940 ca         1 9IT      -0.105000
      5 C5         -11.9060   -32.6840     2.9600 ca         1 9IT       0.111100
      6 C6         -10.6110   -33.2200     3.0520 ca         1 9IT      -0.171000
      7 C7         -10.2460   -34.2660     2.2450 ca         1 9IT      -0.048000
      8 C8         -11.1590   -34.8140     1.3260 ca         1 9IT      -0.060000
      9 C9         -10.8030   -35.8700     0.4330 ca         1 9IT       0.170100
     10 C10        -11.7530   -36.3180    -0.4560 ca         1 9IT       0.193500
     11 N1         -13.0130   -35.8070    -0.5010 nb         1 9IT      -0.712000
     12 C11        -11.4010   -37.3720    -1.4270 c          1 9IT       0.515600
     13 O1         -10.2520   -37.8510    -1.4380 o          1 9IT      -0.670100
     14 N2         -12.3670   -37.7760    -2.2430 ns         1 9IT      -0.401900
     15 C12        -12.1230   -38.6040    -3.3950 c3         1 9IT      -0.066000
     16 C13        -11.4990   -37.8550    -4.6040 c          1 9IT       0.713000
     17 O2         -11.2710   -36.6420    -4.4720 o          1 9IT      -0.720500
     18 O3         -11.2960   -38.5730    -5.6010 o          1 9IT      -0.720500
     19 O4          -9.5680   -36.3580     0.4940 oh         1 9IT      -0.567100
     20 O5         -12.2980   -31.6330     3.7300 os         1 9IT      -0.259200
     21 C14        -11.3630   -30.6850     4.0610 ca         1 9IT       0.128100
     22 C15        -10.7820   -29.9060     3.0600 ca         1 9IT      -0.094800
     23 C16         -9.8360   -28.9660     3.4490 ca         1 9IT      -0.065000
     24 C17         -9.5070   -28.7800     4.7880 ca         1 9IT      -0.175600
     25 C18        -10.1520   -29.5380     5.7620 ca         1 9IT      -0.065000
     26 C19        -11.0720   -30.5170     5.4150 ca         1 9IT      -0.094800
     27 C1         -15.5010   -34.8670    -0.6860 c3         1 9IT       0.159900
     28 C20         -7.3620   -27.4640     4.3240 ca         1 9IT      -0.165600
     29 C21         -6.7590   -28.4830     3.5900 ca         1 9IT      -0.072000
     30 C22         -5.6200   -28.2470     2.8230 ca         1 9IT      -0.084300
     31 C23         -5.1030   -26.9550     2.7950 ca         1 9IT      -0.089000
     32 C24         -5.6990   -25.9290     3.5190 ca         1 9IT      -0.123000
     33 C25         -6.8160   -26.1800     4.2950 ca         1 9IT      -0.067000
     34 C26        -11.7330   -31.3730     6.4540 c3         1 9IT      -0.044300
     35 C27        -11.1590   -30.0500     1.6150 c3         1 9IT      -0.044300
     36 C28         -8.5340   -27.7360     5.2000 c          1 9IT       0.598300
     37 O29         -8.6880   -27.1180     6.2350 o          1 9IT      -0.525100
     38 C30         -4.9930   -29.3600     2.0370 c3         1 9IT      -0.048800
     39 H1         -13.8220   -32.7880     2.0380 ha         1 9IT       0.141000
     40 H2          -9.8950   -32.8090     3.7520 ha         1 9IT       0.120000
     41 H3          -9.2450   -34.6670     2.3180 ha         1 9IT       0.135000
     42 H4         -13.2310   -37.2570    -2.1980 hn         1 9IT       0.319500
     43 H5         -13.0760   -39.0420    -3.6980 h1         1 9IT       0.039700
     44 H6         -11.4770   -39.4380    -3.1180 h1         1 9IT       0.039700
     45 H8          -9.5190   -37.0500    -0.2210 ho         1 9IT       0.541000
     46 H9          -9.3720   -28.3520     2.6870 ha         1 9IT       0.124500
     47 H10         -9.9110   -29.3900     6.8080 ha         1 9IT       0.124500
     48 H11        -16.4300   -34.3220    -0.5400 h1         1 9IT       0.044367
     49 H12        -15.1430   -34.7060    -1.7040 h1         1 9IT       0.044367
     50 H13        -15.6790   -35.9330    -0.5420 h1         1 9IT       0.044367
     51 H14         -7.1620   -29.4880     3.6310 ha         1 9IT       0.123000
     52 H15         -4.2210   -26.7470     2.2000 ha         1 9IT       0.111000
     53 H16         -5.2810   -24.9310     3.4800 ha         1 9IT       0.113000
     54 H17         -7.2740   -25.3810     4.8640 ha         1 9IT       0.126000
     55 H18        -11.5260   -32.4320     6.2940 hc         1 9IT       0.050033
     56 H19        -11.3770   -31.1110     7.4490 hc         1 9IT       0.050033
     57 H20        -12.8170   -31.2520     6.4450 hc         1 9IT       0.050033
     58 H21        -10.7140   -30.9390     1.1640 hc         1 9IT       0.050033
     59 H22        -12.2380   -30.1230     1.4800 hc         1 9IT       0.050033
     60 H23        -10.8090   -29.1890     1.0480 hc         1 9IT       0.050033
     61 H24         -4.9370   -30.2780     2.6230 hc         1 9IT       0.046033
     62 H25         -5.5770   -29.5860     1.1430 hc         1 9IT       0.046033
     63 H26         -3.9850   -29.1040     1.7140 hc         1 9IT       0.046033
@<TRIPOS>BOND
     1     1     2 1   
     2     1    27 1   
     3     2     3 ar  
     4     2    11 ar  
     5     3     4 ar  
     6     3     8 ar  
     7     4     5 ar  
     8     4    39 1   
     9     5     6 ar  
    10     5    20 1   
    11     6     7 ar  
    12     6    40 1   
    13     7     8 ar  
    14     7    41 1   
    15     8     9 ar  
    16     9    10 ar  
    17     9    19 1   
    18    10    11 ar  
    19    10    12 1   
    20    12    13 2   
    21    12    14 1   
    22    14    15 1   
    23    14    42 1   
    24    15    16 1   
    25    15    43 1   
    26    15    44 1   
    27    16    17 1   
    28    16    18 1   
    29    19    45 1   
    30    20    21 1   
    31    21    22 ar  
    32    21    26 ar  
    33    22    23 ar  
    34    22    35 1   
    35    23    24 ar  
    36    23    46 1   
    37    24    25 ar  
    38    24    36 1   
    39    25    26 ar  
    40    25    47 1   
    41    26    34 1   
    42    27    48 1   
    43    27    49 1   
    44    27    50 1   
    45    28    29 ar  
    46    28    33 ar  
    47    28    36 1   
    48    29    30 ar  
    49    29    51 1   
    50    30    31 ar  
    51    30    38 1   
    52    31    32 ar  
    53    31    52 1   
    54    32    33 ar  
    55    32    53 1   
    56    33    54 1   
    57    34    55 1   
    58    34    56 1   
    59    34    57 1   
    60    35    58 1   
    61    35    59 1   
    62    35    60 1   
    63    36    37 2   
    64    38    61 1   
    65    38    62 1   
    66    38    63 1   
@<TRIPOS>SUBSTRUCTURE
     1 9IT         1 TEMP              0 ****  ****    0 ROOT
