@<TRIPOS>MOLECULE
9IU
   26    26     1     0     0
SMALL
abcg2


@<TRIPOS>ATOM
      1 C4           4.5840    -0.1940   -11.5730 c6         1 9IU      -0.065400
      2 C2           4.4790    -2.6440   -14.2320 c2         1 9IU      -0.324000
      3 C6           4.6470     2.2490   -12.2010 c2         1 9IU      -0.120400
      4 C5           3.9860     1.1910   -11.3610 c6         1 9IU      -0.040200
      5 C8           5.4420     1.9310   -13.2240 c2         1 9IU      -0.220200
      6 C1           5.1570    -1.9050   -13.3550 c2         1 9IU      -0.109400
      7 C            6.3480    -2.4530   -12.6230 c3         1 9IU      -0.055900
      8 C3           4.7500    -0.4820   -13.0660 c6         1 9IU      -0.026500
      9 C9           5.7310     0.5280   -13.6680 c6         1 9IU      -0.032200
     10 C7           4.3510     3.6680   -11.8240 c3         1 9IU      -0.051900
     11 H1           3.9480    -0.9500   -11.1060 hc         1 9IU       0.042700
     12 H2           5.5550    -0.2490   -11.0710 hc         1 9IU       0.042700
     13 H3           4.7660    -3.6630   -14.4630 ha         1 9IU       0.162000
     14 H4           3.6120    -2.2530   -14.7530 ha         1 9IU       0.162000
     15 H5           4.0590     1.4710   -10.3050 hc         1 9IU       0.044200
     16 H6           2.9120     1.1770   -11.5820 hc         1 9IU       0.044200
     17 H7           5.9110     2.7280   -13.7930 ha         1 9IU       0.169000
     18 H8           6.1540    -2.5240   -11.5500 hc         1 9IU       0.039033
     19 H9           6.6090    -3.4490   -12.9790 hc         1 9IU       0.039033
     20 H10          7.2240    -1.8120   -12.7380 hc         1 9IU       0.039033
     21 H11          3.7770    -0.3130   -13.5410 hc         1 9IU       0.051700
     22 H12          5.6840     0.4730   -14.7600 hc         1 9IU       0.047700
     23 H13          6.7630     0.2660   -13.4070 hc         1 9IU       0.047700
     24 H14          3.2760     3.8600   -11.8410 hc         1 9IU       0.038367
     25 H15          4.6870     3.8800   -10.8050 hc         1 9IU       0.038367
     26 H16          4.8320     4.3800   -12.4950 hc         1 9IU       0.038367
@<TRIPOS>BOND
     1     1     4 1   
     2     1     8 1   
     3     1    11 1   
     4     1    12 1   
     5     2     6 2   
     6     2    13 1   
     7     2    14 1   
     8     3     4 1   
     9     3     5 2   
    10     3    10 1   
    11     4    15 1   
    12     4    16 1   
    13     5     9 1   
    14     5    17 1   
    15     6     7 1   
    16     6     8 1   
    17     7    18 1   
    18     7    19 1   
    19     7    20 1   
    20     8     9 1   
    21     8    21 1   
    22     9    22 1   
    23     9    23 1   
    24    10    24 1   
    25    10    25 1   
    26    10    26 1   
@<TRIPOS>SUBSTRUCTURE
     1 9IU         1 TEMP              0 ****  ****    0 ROOT
