@<TRIPOS>MOLECULE
9IU
   26    26     1     0     0
SMALL
No Charge or Current Charge


@<TRIPOS>ATOM
      1 C4           4.5760    -0.2000   -11.5550 c6         1 9IU      -0.065400
      2 C2           4.4880    -2.6720   -14.2700 c2         1 9IU      -0.324000
      3 C6           4.6490     2.2820   -12.2030 c2         1 9IU      -0.120400
      4 C5           3.9870     1.2150   -11.3300 c6         1 9IU      -0.040200
      5 C8           5.4320     1.9660   -13.2510 c2         1 9IU      -0.220200
      6 C1           5.1630    -1.9400   -13.3690 c2         1 9IU      -0.109400
      7 C            6.3580    -2.4970   -12.6090 c3         1 9IU      -0.055900
      8 C3           4.7550    -0.4900   -13.0670 c6         1 9IU      -0.026500
      9 C9           5.7400     0.5370   -13.6850 c6         1 9IU      -0.032200
     10 C7           4.3320     3.7110   -11.8060 c3         1 9IU      -0.051900
     11 H1           3.9200    -0.9520   -11.0960 hc         1 9IU       0.042700
     12 H2           5.5450    -0.2690   -11.0430 hc         1 9IU       0.042700
     13 H3           4.7660    -3.7010   -14.4970 ha         1 9IU       0.162000
     14 H4           3.6340    -2.2710   -14.8170 ha         1 9IU       0.162000
     15 H5           4.0950     1.4780   -10.2690 hc         1 9IU       0.044200
     16 H6           2.9080     1.2030   -11.5370 hc         1 9IU       0.044200
     17 H7           5.8860     2.7510   -13.8590 ha         1 9IU       0.169000
     18 H8           6.1620    -2.5480   -11.5320 hc         1 9IU       0.039033
     19 H9           6.6030    -3.5150   -12.9370 hc         1 9IU       0.039033
     20 H10          7.2550    -1.8860   -12.7600 hc         1 9IU       0.039033
     21 H11          3.7780    -0.3140   -13.5400 hc         1 9IU       0.051700
     22 H12          5.6950     0.4680   -14.7810 hc         1 9IU       0.047700
     23 H13          6.7740     0.3010   -13.4020 hc         1 9IU       0.047700
     24 H14          3.2520     3.8990   -11.8400 hc         1 9IU       0.038367
     25 H15          4.6770     3.9230   -10.7870 hc         1 9IU       0.038367
     26 H16          4.8140     4.4340   -12.4740 hc         1 9IU       0.038367
@<TRIPOS>BOND
     1     1     4 1   
     2     1     8 1   
     3     1    11 1   
     4     1    12 1   
     5     2     6 2   
     6     2    13 1   
     7     2    14 1   
     8     3     4 1   
     9     3     5 2   
    10     3    10 1   
    11     4    15 1   
    12     4    16 1   
    13     5     9 1   
    14     5    17 1   
    15     6     7 1   
    16     6     8 1   
    17     7    18 1   
    18     7    19 1   
    19     7    20 1   
    20     8     9 1   
    21     8    21 1   
    22     9    22 1   
    23     9    23 1   
    24    10    24 1   
    25    10    25 1   
    26    10    26 1   
@<TRIPOS>SUBSTRUCTURE
     1 9IU         1 TEMP              0 ****  ****    0 ROOT
