@<TRIPOS>MOLECULE
9IV
   37    40     1     0     0
SMALL
bcc


@<TRIPOS>ATOM
      1 N1          72.1250    39.7920    -0.8670 nb         1 9IV      -0.809000
      2 C2          66.3320    44.6050    -7.2130 ca         1 9IV      -0.122000
      3 N3          71.9420    36.4430     1.3110 na         1 9IV      -0.265100
      4 C4          68.5690    44.0770    -6.5100 ca         1 9IV      -0.126000
      5 C5          68.2280    44.3770    -5.2000 ca         1 9IV       0.103100
      6 C6          69.2810    43.1770    -3.4710 ca         1 9IV       0.120100
      7 C           66.9320    44.7860    -4.9010 ca         1 9IV       0.009400
      8 C3          67.6220    44.1950    -7.5170 ca         1 9IV      -0.119000
      9 C1          65.9830    44.9040    -5.9040 ca         1 9IV      -0.115000
     10 O           69.1720    44.3160    -4.2200 os         1 9IV      -0.243200
     11 C17         68.5090    42.0420    -3.6710 ca         1 9IV      -0.155500
     12 C16         68.7200    40.9260    -2.8740 ca         1 9IV      -0.114500
     13 C9          69.6770    40.9270    -1.8650 ca         1 9IV       0.129600
     14 C8          70.4270    42.0850    -1.6590 ca         1 9IV      -0.114500
     15 C7          70.2340    43.1960    -2.4610 ca         1 9IV      -0.155500
     16 N           69.8080    39.7840    -1.0650 nu         1 9IV      -0.741300
     17 C10         70.9530    39.2290    -0.5960 ca         1 9IV       0.761200
     18 C15         70.9110    38.0510     0.1750 ca         1 9IV      -0.386400
     19 C14         69.9190    37.1590     0.6810 cc         1 9IV      -0.158200
     20 C13         70.5940    36.1930     1.3670 cd         1 9IV      -0.124100
     21 C12         72.1580    37.5680     0.5920 ca         1 9IV       0.472800
     22 N2          73.3420    38.1250     0.3240 nb         1 9IV      -0.749000
     23 C11         73.2350    39.2190    -0.4000 ca         1 9IV       0.702900
     24 H1          65.5900    44.6990    -7.9950 ha         1 9IV       0.139000
     25 H2          72.6600    35.8770     1.7360 hn         1 9IV       0.312700
     26 H3          69.5800    43.7610    -6.7340 ha         1 9IV       0.152000
     27 H4          67.8950    43.9650    -8.5380 ha         1 9IV       0.140000
     28 H5          64.9790    45.2250    -5.6620 ha         1 9IV       0.149000
     29 H6          67.7550    41.9970    -4.4460 ha         1 9IV       0.146500
     30 H7          68.1230    40.0380    -3.0480 ha         1 9IV       0.143500
     31 H8          71.1620    42.1310    -0.8700 ha         1 9IV       0.143500
     32 H9          70.8230    44.0890    -2.2920 ha         1 9IV       0.146500
     33 H10         68.9740    39.2270    -0.9630 hn         1 9IV       0.444800
     34 H11         68.8490    37.2160     0.5610 ha         1 9IV       0.153000
     35 H12         70.2190    35.3350     1.9000 h4         1 9IV       0.167000
     36 H13         74.1620    39.7230    -0.6540 h5         1 9IV       0.046100
     37 CL          66.5210    45.1540    -3.2660 cl         1 9IV      -0.084400
@<TRIPOS>BOND
     1     1    17 ar  
     2     1    23 ar  
     3     2     8 ar  
     4     2     9 ar  
     5     2    24 1   
     6     3    20 1   
     7     3    21 1   
     8     3    25 1   
     9     4     5 ar  
    10     4     8 ar  
    11     4    26 1   
    12     5     7 ar  
    13     5    10 1   
    14     6    10 1   
    15     6    11 ar  
    16     6    15 ar  
    17     7     9 ar  
    18     7    37 1   
    19     8    27 1   
    20     9    28 1   
    21    11    12 ar  
    22    11    29 1   
    23    12    13 ar  
    24    12    30 1   
    25    13    14 ar  
    26    13    16 1   
    27    14    15 ar  
    28    14    31 1   
    29    15    32 1   
    30    16    17 1   
    31    16    33 1   
    32    17    18 ar  
    33    18    19 1   
    34    18    21 ar  
    35    19    20 2   
    36    19    34 1   
    37    20    35 1   
    38    21    22 ar  
    39    22    23 ar  
    40    23    36 1   
@<TRIPOS>SUBSTRUCTURE
     1 9IV         1 TEMP              0 ****  ****    0 ROOT
