@<TRIPOS>MOLECULE
9IV
   37    40     1     0     0
SMALL
No Charge or Current Charge


@<TRIPOS>ATOM
      1 N1          72.3340    39.7570    -0.9910 nb         1 9IV      -0.283000
      2 C2          66.6860    44.6020    -7.5220 ca         1 9IV      -0.104000
      3 N3          72.0970    36.2910     1.2340 na         1 9IV      -0.315400
      4 C4          68.3460    43.6600    -6.0080 ca         1 9IV      -0.108000
      5 C5          67.8700    44.4860    -4.9680 ca         1 9IV       0.103100
      6 C6          68.8290    43.2730    -3.1060 ca         1 9IV       0.120100
      7 C           66.8090    45.3820    -5.2160 ca         1 9IV       0.101000
      8 C3          67.7510    43.7170    -7.2810 ca         1 9IV      -0.101000
      9 C1          66.2170    45.4350    -6.4900 ca         1 9IV      -0.097000
     10 O           68.4560    44.4470    -3.7200 os         1 9IV      -0.243200
     11 C17         68.0580    42.1030    -3.2360 ca         1 9IV      -0.137500
     12 C16         68.4580    40.9210    -2.5840 ca         1 9IV      -0.096500
     13 C9          69.6260    40.8940    -1.7980 ca         1 9IV       0.268000
     14 C8          70.3770    42.0800    -1.6520 ca         1 9IV      -0.096500
     15 C7          69.9790    43.2630    -2.3020 ca         1 9IV      -0.137500
     16 N           69.9780    39.6970    -1.1580 nu         1 9IV      -0.934900
     17 C10         71.1680    39.1600    -0.6790 ca         1 9IV       0.432900
     18 C15         71.1710    37.9800     0.0770 ca         1 9IV      -0.255800
     19 C14         70.1020    37.1390     0.5380 cc         1 9IV      -0.208200
     20 C13         70.6910    36.1060     1.2480 cd         1 9IV      -0.174100
     21 C12         72.3580    37.4460     0.5110 ca         1 9IV       0.144500
     22 N2          73.5320    38.0340     0.2180 nb         1 9IV      -0.223000
     23 C11         73.4590    39.1660    -0.5220 ca         1 9IV       0.176900
     24 H1          66.2270    44.6460    -8.5070 ha         1 9IV       0.121000
     25 H2          72.7940    35.6950     1.6710 hn         1 9IV       0.363000
     26 H3          69.1770    42.9810    -5.8320 ha         1 9IV       0.134000
     27 H4          68.1180    43.0770    -8.0810 ha         1 9IV       0.122000
     28 H5          65.3960    46.1230    -6.6780 ha         1 9IV       0.131000
     29 H6          67.1500    42.1050    -3.8340 ha         1 9IV       0.128500
     30 H7          67.8570    40.0230    -2.6950 ha         1 9IV       0.125500
     31 H8          71.2590    42.1000    -1.0200 ha         1 9IV       0.125500
     32 H9          70.5620    44.1720    -2.1820 ha         1 9IV       0.128500
     33 H10         69.2120    39.0320    -1.0810 hn         1 9IV       0.500000
     34 H11         69.0310    37.2680     0.3840 ha         1 9IV       0.203000
     35 H12         70.2220    35.2650     1.7570 h4         1 9IV       0.217000
     36 H13         74.4030    39.6490    -0.7690 h5         1 9IV       0.046100
     37 Cl          66.2030    46.4360    -3.9400 cl         1 9IV      -0.176000
@<TRIPOS>BOND
     1     1    17 ar  
     2     1    23 ar  
     3     2     8 ar  
     4     2     9 ar  
     5     2    24 1   
     6     3    20 1   
     7     3    21 1   
     8     3    25 1   
     9     4     5 ar  
    10     4     8 ar  
    11     4    26 1   
    12     5     7 ar  
    13     5    10 1   
    14     6    10 1   
    15     6    11 ar  
    16     6    15 ar  
    17     7     9 ar  
    18     7    37 1   
    19     8    27 1   
    20     9    28 1   
    21    11    12 ar  
    22    11    29 1   
    23    12    13 ar  
    24    12    30 1   
    25    13    14 ar  
    26    13    16 1   
    27    14    15 ar  
    28    14    31 1   
    29    15    32 1   
    30    16    17 1   
    31    16    33 1   
    32    17    18 ar  
    33    18    19 1   
    34    18    21 ar  
    35    19    20 2   
    36    19    34 1   
    37    20    35 1   
    38    21    22 ar  
    39    22    23 ar  
    40    23    36 1   
@<TRIPOS>SUBSTRUCTURE
     1 9IV         1 TEMP              0 ****  ****    0 ROOT
