@<TRIPOS>MOLECULE
9IW
   67    70     1     0     0
SMALL
No Charge or Current Charge


@<TRIPOS>ATOM
      1 C5          10.7580    32.2710     2.6400 ca         1 9IW       0.122100
      2 C8          10.7010    34.7610     1.3110 ca         1 9IW      -0.066000
      3 C3          11.9290    34.0800     1.4830 ca         1 9IW      -0.029000
      4 C6           9.5370    32.9520     2.4700 ca         1 9IW      -0.184000
      5 C1          15.5170    34.3500     0.4470 c3         1 9IW       0.175600
      6 C17          7.4200    28.7990     4.2490 ca         1 9IW      -0.173600
      7 C14          9.7100    30.3140     3.5960 ca         1 9IW       0.128100
      8 C9          10.7080    36.0050     0.6410 ca         1 9IW       0.173100
      9 C4          11.9450    32.8350     2.1510 ca         1 9IW      -0.115000
     10 C13         14.9250    39.6290    -2.2310 c          1 9IW       0.715000
     11 C7           9.5080    34.1900     1.8070 ca         1 9IW      -0.040000
     12 C2          13.1190    34.6630     0.9760 ca         1 9IW       0.553300
     13 C18          8.0500    29.6000     5.2260 ca         1 9IW      -0.068000
     14 O6          14.3170    34.0010     1.1670 os         1 9IW      -0.479300
     15 C10         11.9460    36.5240     0.1710 ca         1 9IW       0.189500
     16 N1          13.1280    35.8590     0.3440 nb         1 9IW      -0.715000
     17 C11         11.9650    37.8730    -0.5540 c          1 9IW       0.513600
     18 O1          10.9470    38.5370    -0.7520 o          1 9IW      -0.670100
     19 N2          13.2050    38.3040    -0.9760 ns         1 9IW      -0.403900
     20 C12         13.4750    39.5740    -1.6840 c3         1 9IW      -0.063000
     21 O2          15.0850    39.8540    -3.4220 o          1 9IW      -0.720500
     22 O3          15.8440    39.3980    -1.4580 o          1 9IW      -0.720500
     23 O4           9.5360    36.6990     0.4510 oh         1 9IW      -0.566100
     24 O5          10.8280    31.0550     3.2840 os         1 9IW      -0.266200
     25 C15          9.0840    29.5280     2.6030 ca         1 9IW      -0.087800
     26 C16          7.9380    28.7820     2.9360 ca         1 9IW      -0.068000
     27 C19          9.1970    30.3510     4.9090 ca         1 9IW      -0.087800
     28 C20          6.0230    27.4160     5.9720 ca         1 9IW      -0.100600
     29 C21          4.7330    27.2310     6.5150 ca         1 9IW      -0.144000
     30 C22          4.5730    26.6860     7.7970 ca         1 9IW       0.196000
     31 C23          5.6880    26.3100     8.5540 ca         1 9IW      -0.179000
     32 C24          6.9780    26.4680     8.0300 ca         1 9IW       0.159100
     33 C25          7.1450    27.0130     6.7370 ca         1 9IW      -0.184000
     34 C26          9.8650    31.2090     5.9780 c3         1 9IW      -0.046300
     35 C27          9.6300    29.4820     1.1800 c3         1 9IW      -0.046300
     36 O29          5.3150    27.8160     3.7280 o          1 9IW      -0.508100
     37 F30          3.3320    26.5240     8.3060 f          1 9IW      -0.175000
     38 C29         15.3940    33.8300    -1.0000 c3         1 9IW      -0.125100
     39 O30          8.0420    26.0730     8.8140 os         1 9IW      -0.339100
     40 C31          9.4090    26.2110     8.3820 c3         1 9IW       0.146900
     41 H1           8.6070    32.5340     2.8470 ha         1 9IW       0.121000
     42 H2          15.6980    35.4330     0.4540 h1         1 9IW       0.051200
     43 H3          16.3840    33.8680     0.9160 h1         1 9IW       0.051200
     44 H4          12.8780    32.2950     2.2940 ha         1 9IW       0.141000
     45 H5           8.5550    34.7010     1.6850 ha         1 9IW       0.135000
     46 H6           7.6430    29.6510     6.2330 ha         1 9IW       0.126000
     47 H7          13.9830    37.6900    -0.7510 hn         1 9IW       0.319500
     48 H8          13.3300    40.4130    -0.9910 h1         1 9IW       0.038700
     49 H9          12.7710    39.6790    -2.5200 h1         1 9IW       0.038700
     50 H11          9.7830    37.5360    -0.0360 ho         1 9IW       0.541000
     51 H12          7.4510    28.1780     2.1730 ha         1 9IW       0.126000
     52 H13          3.8500    27.5160     5.9470 ha         1 9IW       0.149000
     53 H14          5.5530    25.8900     9.5470 ha         1 9IW       0.144000
     54 H15          8.1390    27.1170     6.3110 ha         1 9IW       0.133000
     55 H16          9.8170    32.2720     5.7140 hc         1 9IW       0.051700
     56 H17          9.3880    31.0890     6.9580 hc         1 9IW       0.051700
     57 H18         10.9220    30.9410     6.0930 hc         1 9IW       0.051700
     58 H19          9.4320    30.4230     0.6530 hc         1 9IW       0.051700
     59 H20         10.7140    29.3170     1.1760 hc         1 9IW       0.051700
     60 H21          9.1760    28.6730     0.5950 hc         1 9IW       0.051700
     61 H22         16.3250    34.0160    -1.5470 hc         1 9IW       0.049367
     62 H23         15.2030    32.7500    -1.0060 hc         1 9IW       0.049367
     63 H24         14.5800    34.3330    -1.5350 hc         1 9IW       0.049367
     64 H25         10.0910    25.8470     9.1600 h1         1 9IW       0.045033
     65 H26          9.5910    25.6290     7.4710 h1         1 9IW       0.045033
     66 H27          9.6510    27.2630     8.1840 h1         1 9IW       0.045033
     67 C28          6.1810    27.9950     4.5780 c          1 9IW       0.592300
@<TRIPOS>BOND
     1     1     4 ar  
     2     1     9 ar  
     3     1    24 1   
     4     2     3 ar  
     5     2     8 ar  
     6     2    11 ar  
     7     3     9 ar  
     8     3    12 ar  
     9     4    11 ar  
    10     4    41 1   
    11     5    14 1   
    12     5    38 1   
    13     5    42 1   
    14     5    43 1   
    15     6    13 ar  
    16     6    26 ar  
    17     6    67 1   
    18     7    24 1   
    19     7    25 ar  
    20     7    27 ar  
    21     8    15 ar  
    22     8    23 1   
    23     9    44 1   
    24    10    20 1   
    25    10    21 1   
    26    10    22 1   
    27    11    45 1   
    28    12    14 1   
    29    12    16 ar  
    30    13    27 ar  
    31    13    46 1   
    32    15    16 ar  
    33    15    17 1   
    34    17    18 2   
    35    17    19 1   
    36    19    20 1   
    37    19    47 1   
    38    20    48 1   
    39    20    49 1   
    40    23    50 1   
    41    25    26 ar  
    42    25    35 1   
    43    26    51 1   
    44    27    34 1   
    45    28    29 ar  
    46    28    33 ar  
    47    28    67 1   
    48    29    30 ar  
    49    29    52 1   
    50    30    31 ar  
    51    30    37 1   
    52    31    32 ar  
    53    31    53 1   
    54    32    33 ar  
    55    32    39 1   
    56    33    54 1   
    57    34    55 1   
    58    34    56 1   
    59    34    57 1   
    60    35    58 1   
    61    35    59 1   
    62    35    60 1   
    63    36    67 2   
    64    38    61 1   
    65    38    62 1   
    66    38    63 1   
    67    39    40 1   
    68    40    64 1   
    69    40    65 1   
    70    40    66 1   
@<TRIPOS>SUBSTRUCTURE
     1 9IW         1 TEMP              0 ****  ****    0 ROOT
