@<TRIPOS>MOLECULE
9IW
   67    70     1     0     0
SMALL
bcc


@<TRIPOS>ATOM
      1 C5          10.7000    32.2820     2.6220 ca         1 9IW       0.122100
      2 C8          10.7510    34.7350     1.2900 ca         1 9IW      -0.066000
      3 C3          11.9460    34.0350     1.5550 ca         1 9IW      -0.094300
      4 C6           9.5010    32.9670     2.3640 ca         1 9IW      -0.202000
      5 C1          15.5430    34.4540     0.9370 c3         1 9IW       0.152400
      6 C17          7.4460    28.8200     4.2160 ca         1 9IW      -0.173600
      7 C14          9.6080    30.3950     3.5640 ca         1 9IW       0.128100
      8 C9          10.8300    35.9910     0.6130 ca         1 9IW       0.107800
      9 C4          11.9090    32.8040     2.2200 ca         1 9IW      -0.133000
     10 C13         13.5200    39.1320    -3.0560 c          1 9IW       0.925600
     11 C7           9.5330    34.1720     1.7070 ca         1 9IW      -0.058000
     12 C2          13.1760    34.6370     1.1150 ca         1 9IW       0.618600
     13 C18          8.0050    29.6710     5.1650 ca         1 9IW      -0.086000
     14 O6          14.2860    33.9490     1.3900 os         1 9IW      -0.456100
     15 C10         12.0730    36.4570     0.2520 ca         1 9IW       0.254800
     16 N1          13.2190    35.7680     0.5070 nb         1 9IW      -0.715000
     17 C11         12.1920    37.7540    -0.4430 c          1 9IW       0.580600
     18 O1          11.1710    38.4180    -0.7050 o          1 9IW      -0.670100
     19 N2          13.4210    38.1680    -0.7270 ns         1 9IW      -0.470900
     20 C12         13.6970    39.3310    -1.5280 c3         1 9IW      -0.063000
     21 O2          13.7620    40.1520    -3.7290 o          1 9IW      -0.825800
     22 O3          13.1710    38.0110    -3.4570 o          1 9IW      -0.825800
     23 O4           9.7020    36.6500     0.3660 oh         1 9IW      -0.527100
     24 O5          10.7500    31.0980     3.2830 os         1 9IW      -0.266200
     25 C15          9.0700    29.5630     2.5810 ca         1 9IW      -0.087800
     26 C16          7.9720    28.7890     2.9260 ca         1 9IW      -0.086000
     27 C19          9.0850    30.4860     4.8510 ca         1 9IW      -0.087800
     28 C20          6.1110    27.4420     5.9190 ca         1 9IW      -0.100600
     29 C21          4.8270    27.2950     6.4310 ca         1 9IW      -0.162000
     30 C22          4.7010    26.7640     7.6990 ca         1 9IW       0.160900
     31 C23          5.7790    26.3520     8.4510 ca         1 9IW      -0.197000
     32 C24          7.0610    26.4810     7.9150 ca         1 9IW       0.159100
     33 C25          7.2280    27.0380     6.6490 ca         1 9IW      -0.202000
     34 C26          9.6810    31.4170     5.8640 c3         1 9IW      -0.046300
     35 C27          9.6720    29.4950     1.2100 c3         1 9IW      -0.046300
     36 O29          5.4400    27.7130     3.6840 o          1 9IW      -0.508100
     37 F30          3.4750    26.6380     8.2250 f          1 9IW      -0.139900
     38 C29         15.7960    34.1530    -0.5250 c3         1 9IW      -0.125100
     39 O30          8.0660    26.0480     8.6890 os         1 9IW      -0.315900
     40 C31          9.3920    26.1460     8.2040 c3         1 9IW       0.123700
     41 H1           8.5500    32.5570     2.6800 ha         1 9IW       0.139000
     42 H2          15.6130    35.5250     1.1330 h1         1 9IW       0.051200
     43 H3          16.2810    33.9500     1.5600 h1         1 9IW       0.051200
     44 H4          12.8200    32.2590     2.4240 ha         1 9IW       0.159000
     45 H5           8.6030    34.6900     1.5170 ha         1 9IW       0.153000
     46 H6           7.5880    29.7230     6.1630 ha         1 9IW       0.144000
     47 H7          14.1690    37.5220    -0.5260 hn         1 9IW       0.319500
     48 H8          14.7260    39.6340    -1.3270 h1         1 9IW       0.038700
     49 H9          13.0640    40.1590    -1.2020 h1         1 9IW       0.038700
     50 H11          9.9800    37.4840    -0.1050 ho         1 9IW       0.502000
     51 H12          7.5380    28.1300     2.1840 ha         1 9IW       0.144000
     52 H13          3.9550    27.6020     5.8700 ha         1 9IW       0.167000
     53 H14          5.6370    25.9350     9.4400 ha         1 9IW       0.162000
     54 H15          8.2120    27.1430     6.2140 ha         1 9IW       0.151000
     55 H16          9.6160    32.4580     5.5410 hc         1 9IW       0.051700
     56 H17          9.1600    31.3340     6.8160 hc         1 9IW       0.051700
     57 H18         10.7350    31.1990     6.0390 hc         1 9IW       0.051700
     58 H19          9.5490    30.4340     0.6660 hc         1 9IW       0.051700
     59 H20         10.7410    29.2840     1.2480 hc         1 9IW       0.051700
     60 H21          9.1970    28.7130     0.6220 hc         1 9IW       0.051700
     61 H22         16.7970    34.4940    -0.7920 hc         1 9IW       0.049367
     62 H23         15.7450    33.0820    -0.7240 hc         1 9IW       0.049367
     63 H24         15.0860    34.6620    -1.1760 hc         1 9IW       0.049367
     64 H25         10.0330    25.7380     8.9810 h1         1 9IW       0.045033
     65 H26          9.5350    25.5670     7.2890 h1         1 9IW       0.045033
     66 H27          9.6820    27.1840     8.0170 h1         1 9IW       0.045033
     67 C28          6.2660    27.9760     4.5330 c          1 9IW       0.592300
@<TRIPOS>BOND
     1     1     4 ar  
     2     1     9 ar  
     3     1    24 1   
     4     2     3 ar  
     5     2     8 ar  
     6     2    11 ar  
     7     3     9 ar  
     8     3    12 ar  
     9     4    11 ar  
    10     4    41 1   
    11     5    14 1   
    12     5    38 1   
    13     5    42 1   
    14     5    43 1   
    15     6    13 ar  
    16     6    26 ar  
    17     6    67 1   
    18     7    24 1   
    19     7    25 ar  
    20     7    27 ar  
    21     8    15 ar  
    22     8    23 1   
    23     9    44 1   
    24    10    20 1   
    25    10    21 1   
    26    10    22 1   
    27    11    45 1   
    28    12    14 1   
    29    12    16 ar  
    30    13    27 ar  
    31    13    46 1   
    32    15    16 ar  
    33    15    17 1   
    34    17    18 2   
    35    17    19 1   
    36    19    20 1   
    37    19    47 1   
    38    20    48 1   
    39    20    49 1   
    40    23    50 1   
    41    25    26 ar  
    42    25    35 1   
    43    26    51 1   
    44    27    34 1   
    45    28    29 ar  
    46    28    33 ar  
    47    28    67 1   
    48    29    30 ar  
    49    29    52 1   
    50    30    31 ar  
    51    30    37 1   
    52    31    32 ar  
    53    31    53 1   
    54    32    33 ar  
    55    32    39 1   
    56    33    54 1   
    57    34    55 1   
    58    34    56 1   
    59    34    57 1   
    60    35    58 1   
    61    35    59 1   
    62    35    60 1   
    63    36    67 2   
    64    38    61 1   
    65    38    62 1   
    66    38    63 1   
    67    39    40 1   
    68    40    64 1   
    69    40    65 1   
    70    40    66 1   
@<TRIPOS>SUBSTRUCTURE
     1 9IW         1 TEMP              0 ****  ****    0 ROOT
