@<TRIPOS>MOLECULE
9IX
   26    26     1     0     0
SMALL
No Charge or Current Charge


@<TRIPOS>ATOM
      1 C1         -37.5030    -7.4410    -5.3850 c3         1 9IX      -0.008400
      2 C2         -37.4000    -5.9490    -5.7760 c3         1 9IX      -0.085100
      3 C3         -36.1830    -7.9570    -4.7850 ca         1 9IX      -0.063300
      4 C4         -35.0160    -7.9630    -5.5790 ca         1 9IX      -0.109000
      5 C5         -33.7940    -8.4260    -5.0680 ca         1 9IX       0.108100
      6 C6         -33.7100    -8.8970    -3.7410 ca         1 9IX      -0.130300
      7 C7         -32.3940    -9.4070    -3.1570 c3         1 9IX      -0.049800
      8 C8         -34.8690    -8.8940    -2.9420 ca         1 9IX      -0.163000
      9 C9         -36.0960    -8.4310    -3.4520 ca         1 9IX       0.103100
     10 O1         -37.1900    -8.4500    -2.6330 oh         1 9IX      -0.537100
     11 C          -37.9590    -8.3100    -6.5780 c3         1 9IX      -0.085100
     12 O          -32.6930    -8.4120    -5.8760 oh         1 9IX      -0.542100
     13 H1         -38.3050    -7.5040    -4.6400 hc         1 9IX       0.064700
     14 H2         -37.0950    -5.3470    -4.9110 hc         1 9IX       0.034867
     15 H3         -36.6680    -5.7950    -6.5770 hc         1 9IX       0.034867
     16 H4         -38.3700    -5.5740    -6.1250 hc         1 9IX       0.034867
     17 H5         -35.0530    -7.6060    -6.6040 ha         1 9IX       0.131000
     18 H6         -31.6260    -8.6250    -3.1670 hc         1 9IX       0.042367
     19 H7         -32.5100    -9.7330    -2.1170 hc         1 9IX       0.042367
     20 H8         -32.0140   -10.2660    -3.7250 hc         1 9IX       0.042367
     21 H9         -34.8150    -9.2560    -1.9180 ha         1 9IX       0.109000
     22 H10        -36.9210    -8.8110    -1.7610 ho         1 9IX       0.459000
     23 H11        -38.0450    -9.3610    -6.2760 hc         1 9IX       0.034867
     24 H12        -38.9400    -7.9810    -6.9430 hc         1 9IX       0.034867
     25 H13        -37.2480    -8.2490    -7.4110 hc         1 9IX       0.034867
     26 H14        -31.9330    -8.7650    -5.3660 ho         1 9IX       0.463000
@<TRIPOS>BOND
     1     1     2 1   
     2     1     3 1   
     3     1    11 1   
     4     1    13 1   
     5     2    14 1   
     6     2    15 1   
     7     2    16 1   
     8     3     4 ar  
     9     3     9 ar  
    10     4     5 ar  
    11     4    17 1   
    12     5     6 ar  
    13     5    12 1   
    14     6     7 1   
    15     6     8 ar  
    16     7    18 1   
    17     7    19 1   
    18     7    20 1   
    19     8     9 ar  
    20     8    21 1   
    21     9    10 1   
    22    10    22 1   
    23    11    23 1   
    24    11    24 1   
    25    11    25 1   
    26    12    26 1   
@<TRIPOS>SUBSTRUCTURE
     1 9IX         1 TEMP              0 ****  ****    0 ROOT
