@<TRIPOS>MOLECULE
9IX
   26    26     1     0     0
SMALL
bcc


@<TRIPOS>ATOM
      1 C1         -37.4980    -7.6200    -5.4320 c3         1 9IX      -0.008400
      2 C2         -37.6060    -6.0940    -5.3570 c3         1 9IX      -0.085100
      3 C3         -36.1810    -8.0830    -4.8470 ca         1 9IX      -0.063300
      4 C4         -35.0700    -8.3300    -5.6440 ca         1 9IX      -0.127000
      5 C5         -33.8460    -8.7220    -5.1140 ca         1 9IX       0.108100
      6 C6         -33.7030    -8.8880    -3.7370 ca         1 9IX      -0.130300
      7 C7         -32.3980    -9.3240    -3.1350 c3         1 9IX      -0.049800
      8 C8         -34.8120    -8.6380    -2.9340 ca         1 9IX      -0.181000
      9 C9         -36.0310    -8.2360    -3.4640 ca         1 9IX       0.103100
     10 O1         -37.1060    -7.9820    -2.6750 oh         1 9IX      -0.498100
     11 C          -37.7320    -8.1000    -6.8610 c3         1 9IX      -0.085100
     12 O          -32.8290    -8.9280    -5.9900 oh         1 9IX      -0.503100
     13 H1         -38.3010    -8.0400    -4.8210 hc         1 9IX       0.064700
     14 H2         -37.4940    -5.7300    -4.3360 hc         1 9IX       0.034867
     15 H3         -36.8320    -5.6250    -5.9680 hc         1 9IX       0.034867
     16 H4         -38.5750    -5.7560    -5.7290 hc         1 9IX       0.034867
     17 H5         -35.1460    -8.2200    -6.7190 ha         1 9IX       0.149000
     18 H6         -31.5930    -8.6140    -3.3410 hc         1 9IX       0.042367
     19 H7         -32.4790    -9.4110    -2.0530 hc         1 9IX       0.042367
     20 H8         -32.0760   -10.2980    -3.5120 hc         1 9IX       0.042367
     21 H9         -34.7130    -8.7640    -1.8600 ha         1 9IX       0.127000
     22 H10        -36.8800    -8.1260    -1.7500 ho         1 9IX       0.420000
     23 H11        -37.6280    -9.1820    -6.9480 hc         1 9IX       0.034867
     24 H12        -38.7420    -7.8370    -7.1790 hc         1 9IX       0.034867
     25 H13        -37.0440    -7.6380    -7.5710 hc         1 9IX       0.034867
     26 H14        -32.0340    -9.2230    -5.5350 ho         1 9IX       0.424000
@<TRIPOS>BOND
     1     1     2 1   
     2     1     3 1   
     3     1    11 1   
     4     1    13 1   
     5     2    14 1   
     6     2    15 1   
     7     2    16 1   
     8     3     4 ar  
     9     3     9 ar  
    10     4     5 ar  
    11     4    17 1   
    12     5     6 ar  
    13     5    12 1   
    14     6     7 1   
    15     6     8 ar  
    16     7    18 1   
    17     7    19 1   
    18     7    20 1   
    19     8     9 ar  
    20     8    21 1   
    21     9    10 1   
    22    10    22 1   
    23    11    23 1   
    24    11    24 1   
    25    11    25 1   
    26    12    26 1   
@<TRIPOS>SUBSTRUCTURE
     1 9IX         1 TEMP              0 ****  ****    0 ROOT
