@<TRIPOS>MOLECULE
9IZ
   49    52     1     0     0
SMALL
abcg2


@<TRIPOS>ATOM
      1 CAB         48.3870    -6.2980   -24.5160 ca         1 9IZ       0.331900
      2 CAC         49.1770    -5.7160   -23.5340 ca         1 9IZ      -0.164000
      3 CAD         48.5410    -5.0420   -22.5040 ca         1 9IZ      -0.081000
      4 CAE         47.1570    -4.9850   -22.4950 ca         1 9IZ      -0.154000
      5 CAF         46.4490    -5.6090   -23.5220 cp         1 9IZ       0.296000
      6 CAG         44.9640    -5.5760   -23.5620 cp         1 9IZ       0.296000
      7 CAH         44.2050    -5.4820   -22.3950 ca         1 9IZ      -0.153000
      8 CAI         42.8260    -5.4490   -22.5080 ca         1 9IZ      -0.081000
      9 CAJ         42.2490    -5.5300   -23.7650 ca         1 9IZ      -0.159000
     10 CAK         43.0820    -5.6440   -24.8710 ca         1 9IZ       0.347300
     11 CAM         42.5280    -5.7450   -26.2700 c3         1 9IZ       0.148500
     12 CAO         43.1120    -6.7330   -28.4060 c3         1 9IZ       0.160500
     13 CAP         42.4550    -8.1560   -26.5060 c3         1 9IZ       0.160500
     14 CAQ         44.2680    -5.8310   -28.7670 ca         1 9IZ       0.341300
     15 CAR         43.2510    -8.7430   -25.3640 ca         1 9IZ       0.341300
     16 CAS         44.0740    -4.6790   -29.5190 ca         1 9IZ      -0.167500
     17 CAT         45.1670    -3.8810   -29.8260 ca         1 9IZ      -0.079000
     18 CAU         46.4170    -4.2600   -29.3670 ca         1 9IZ      -0.170500
     19 CAV         46.5110    -5.4290   -28.6240 ca         1 9IZ       0.344900
     20 CAY         45.2640    -9.5380   -24.6380 ca         1 9IZ       0.344900
     21 CAZ         44.7780    -9.7950   -23.3630 ca         1 9IZ      -0.170500
     22 CBA         43.4470    -9.5110   -23.1050 ca         1 9IZ      -0.079000
     23 CBB         42.6700    -8.9790   -24.1240 ca         1 9IZ      -0.167500
     24 NAA         47.0630    -6.2480   -24.5160 nb         1 9IZ      -0.611000
     25 NAL         44.4040    -5.6510   -24.7620 nb         1 9IZ      -0.596000
     26 NAN         43.0160    -6.9070   -26.9750 n3         1 9IZ      -0.739600
     27 NAW         45.4730    -6.1980   -28.3330 nb         1 9IZ      -0.613500
     28 NAX         44.5270    -9.0290   -25.6150 nb         1 9IZ      -0.613500
     29 H1          48.8470    -6.8320   -25.3400 h4         1 9IZ       0.021100
     30 H2          50.2540    -5.7880   -23.5840 ha         1 9IZ       0.121000
     31 H3          49.1120    -4.5610   -21.7200 ha         1 9IZ       0.117000
     32 H4          46.6410    -4.4470   -21.7120 ha         1 9IZ       0.121000
     33 H5          44.6740    -5.4540   -21.4220 ha         1 9IZ       0.120000
     34 H6          42.2080    -5.3790   -21.6220 ha         1 9IZ       0.116000
     35 H7          41.1740    -5.5260   -23.8880 ha         1 9IZ       0.118000
     36 H8          42.8430    -4.8490   -26.8130 h1         1 9IZ       0.038700
     37 H9          41.4280    -5.7130   -26.2340 h1         1 9IZ       0.038700
     38 H10         42.1890    -6.3480   -28.8660 h1         1 9IZ       0.037950
     39 H11         43.2950    -7.7110   -28.8570 h1         1 9IZ       0.037950
     40 H12         41.4030    -8.0500   -26.2060 h1         1 9IZ       0.037950
     41 H13         42.4680    -8.8780   -27.3260 h1         1 9IZ       0.037950
     42 H14         43.0790    -4.4100   -29.8520 ha         1 9IZ       0.113500
     43 H15         45.0400    -2.9770   -30.4090 ha         1 9IZ       0.112000
     44 H16         47.2990    -3.6700   -29.5750 ha         1 9IZ       0.117500
     45 H17         47.4760    -5.7590   -28.2510 h4         1 9IZ       0.018100
     46 H18         46.2990    -9.7570   -24.8780 h4         1 9IZ       0.018100
     47 H19         45.4280   -10.2070   -22.6030 ha         1 9IZ       0.117500
     48 H20         43.0200    -9.6960   -22.1280 ha         1 9IZ       0.112000
     49 H21         41.6300    -8.7320   -23.9590 ha         1 9IZ       0.113500
@<TRIPOS>BOND
     1     1     2 ar  
     2     1    24 ar  
     3     1    29 1   
     4     2     3 ar  
     5     2    30 1   
     6     3     4 ar  
     7     3    31 1   
     8     4     5 ar  
     9     4    32 1   
    10     5     6 1   
    11     5    24 ar  
    12     6     7 ar  
    13     6    25 ar  
    14     7     8 ar  
    15     7    33 1   
    16     8     9 ar  
    17     8    34 1   
    18     9    10 ar  
    19     9    35 1   
    20    10    11 1   
    21    10    25 ar  
    22    11    26 1   
    23    11    36 1   
    24    11    37 1   
    25    12    14 1   
    26    12    26 1   
    27    12    38 1   
    28    12    39 1   
    29    13    15 1   
    30    13    26 1   
    31    13    40 1   
    32    13    41 1   
    33    14    16 ar  
    34    14    27 ar  
    35    15    23 ar  
    36    15    28 ar  
    37    16    17 ar  
    38    16    42 1   
    39    17    18 ar  
    40    17    43 1   
    41    18    19 ar  
    42    18    44 1   
    43    19    27 ar  
    44    19    45 1   
    45    20    21 ar  
    46    20    28 ar  
    47    20    46 1   
    48    21    22 ar  
    49    21    47 1   
    50    22    23 ar  
    51    22    48 1   
    52    23    49 1   
@<TRIPOS>SUBSTRUCTURE
     1 9IZ         1 TEMP              0 ****  ****    0 ROOT
