@<TRIPOS>MOLECULE
9IZ
   49    52     1     0     0
SMALL
No Charge or Current Charge


@<TRIPOS>ATOM
      1 CAB         48.8030    -6.5600   -23.4860 ca         1 9IZ       0.331900
      2 CAC         49.3370    -6.1860   -22.2430 ca         1 9IZ      -0.164000
      3 CAD         48.4900    -5.6090   -21.2870 ca         1 9IZ      -0.081000
      4 CAE         47.1360    -5.4370   -21.6170 ca         1 9IZ      -0.154000
      5 CAF         46.6480    -5.8430   -22.8910 cp         1 9IZ       0.296000
      6 CAG         45.1790    -5.6830   -23.2770 cp         1 9IZ       0.296000
      7 CAH         44.1580    -5.5490   -22.2950 ca         1 9IZ      -0.153000
      8 CAI         42.8150    -5.4280   -22.6800 ca         1 9IZ      -0.081000
      9 CAJ         42.5120    -5.4620   -24.0480 ca         1 9IZ      -0.159000
     10 CAK         43.5550    -5.6130   -24.9810 ca         1 9IZ       0.347300
     11 CAM         43.2420    -5.6790   -26.4900 c3         1 9IZ       0.148500
     12 CAO         43.2400    -6.8780   -28.6840 c3         1 9IZ       0.160500
     13 CAP         42.9150    -8.1890   -26.5940 c3         1 9IZ       0.160500
     14 CAQ         43.9890    -5.7820   -29.4690 ca         1 9IZ       0.341300
     15 CAR         43.5440    -8.6950   -25.2780 ca         1 9IZ       0.341300
     16 CAS         43.3850    -4.5270   -29.6970 ca         1 9IZ      -0.167500
     17 CAT         44.0810    -3.5450   -30.4190 ca         1 9IZ      -0.079000
     18 CAU         45.3640    -3.8610   -30.8930 ca         1 9IZ      -0.170500
     19 CAV         45.8960    -5.1350   -30.6320 ca         1 9IZ       0.344900
     20 CAY         45.3930    -9.5900   -24.1880 ca         1 9IZ       0.344900
     21 CAZ         44.7320    -9.5700   -22.9470 ca         1 9IZ      -0.170500
     22 CBA         43.4090    -9.1080   -22.8850 ca         1 9IZ      -0.079000
     23 CBB         42.8070    -8.6700   -24.0740 ca         1 9IZ      -0.167500
     24 NAA         47.5000    -6.3910   -23.8030 nb         1 9IZ      -0.611000
     25 NAL         44.8550    -5.6930   -24.6000 nb         1 9IZ      -0.596000
     26 NAN         43.5280    -6.9660   -27.2160 n3         1 9IZ      -0.739600
     27 NAW         45.2280    -6.0840   -29.9380 nb         1 9IZ      -0.613500
     28 NAX         44.8140    -9.1750   -25.3360 nb         1 9IZ      -0.613500
     29 H1          49.4360    -7.0060   -24.2510 h4         1 9IZ       0.021100
     30 H2          50.3920    -6.3390   -22.0340 ha         1 9IZ       0.121000
     31 H3          48.8730    -5.3000   -20.3150 ha         1 9IZ       0.117000
     32 H4          46.4750    -4.9760   -20.8900 ha         1 9IZ       0.121000
     33 H5          44.4000    -5.5600   -21.2380 ha         1 9IZ       0.120000
     34 H6          42.0270    -5.3280   -21.9360 ha         1 9IZ       0.116000
     35 H7          41.4810    -5.3880   -24.3830 ha         1 9IZ       0.118000
     36 H8          43.8100    -4.8650   -26.9590 h1         1 9IZ       0.038700
     37 H9          42.1820    -5.4230   -26.6240 h1         1 9IZ       0.038700
     38 H10         42.1630    -6.7280   -28.8360 h1         1 9IZ       0.037950
     39 H11         43.4820    -7.8390   -29.1590 h1         1 9IZ       0.037950
     40 H12         41.8420    -8.0180   -26.4310 h1         1 9IZ       0.037950
     41 H13         42.9800    -9.0260   -27.3030 h1         1 9IZ       0.037950
     42 H14         42.3890    -4.3220   -29.3130 ha         1 9IZ       0.113500
     43 H15         43.6390    -2.5680   -30.6050 ha         1 9IZ       0.112000
     44 H16         45.9420    -3.1340   -31.4560 ha         1 9IZ       0.117500
     45 H17         46.8880    -5.4050   -30.9920 h4         1 9IZ       0.018100
     46 H18         46.4160    -9.9550   -24.2650 h4         1 9IZ       0.018100
     47 H19         45.2430    -9.9160   -22.0530 ha         1 9IZ       0.117500
     48 H20         42.8670    -9.0850   -21.9410 ha         1 9IZ       0.112000
     49 H21         41.7860    -8.3000   -24.0650 ha         1 9IZ       0.113500
@<TRIPOS>BOND
     1     1     2 ar  
     2     1    24 ar  
     3     1    29 1   
     4     2     3 ar  
     5     2    30 1   
     6     3     4 ar  
     7     3    31 1   
     8     4     5 ar  
     9     4    32 1   
    10     5     6 1   
    11     5    24 ar  
    12     6     7 ar  
    13     6    25 ar  
    14     7     8 ar  
    15     7    33 1   
    16     8     9 ar  
    17     8    34 1   
    18     9    10 ar  
    19     9    35 1   
    20    10    11 1   
    21    10    25 ar  
    22    11    26 1   
    23    11    36 1   
    24    11    37 1   
    25    12    14 1   
    26    12    26 1   
    27    12    38 1   
    28    12    39 1   
    29    13    15 1   
    30    13    26 1   
    31    13    40 1   
    32    13    41 1   
    33    14    16 ar  
    34    14    27 ar  
    35    15    23 ar  
    36    15    28 ar  
    37    16    17 ar  
    38    16    42 1   
    39    17    18 ar  
    40    17    43 1   
    41    18    19 ar  
    42    18    44 1   
    43    19    27 ar  
    44    19    45 1   
    45    20    21 ar  
    46    20    28 ar  
    47    20    46 1   
    48    21    22 ar  
    49    21    47 1   
    50    22    23 ar  
    51    22    48 1   
    52    23    49 1   
@<TRIPOS>SUBSTRUCTURE
     1 9IZ         1 TEMP              0 ****  ****    0 ROOT
