@<TRIPOS>MOLECULE
9J0
   57    61     1     0     0
SMALL
abcg2


@<TRIPOS>ATOM
      1 O32          8.4250    -0.7650    -0.7250 o          1 9J0      -0.600100
      2 C31          7.8090     0.1410    -0.1810 c          1 9J0       0.616700
      3 N33          8.4090     1.2290     0.3240 nt         1 9J0      -0.602000
      4 C27          6.3200     0.0840    -0.0410 ca         1 9J0      -0.143600
      5 C26          5.6110    -0.7290    -0.9200 ca         1 9J0      -0.059000
      6 C25          4.2260    -0.8400    -0.8710 ca         1 9J0      -0.059300
      7 C30          3.4960    -1.6780    -1.8770 c3         1 9J0      -0.047800
      8 C28          5.6280     0.7880     0.9390 ca         1 9J0      -0.087000
      9 C29          4.2520     0.6740     1.0280 ca         1 9J0      -0.098000
     10 C24          3.5620    -0.1290     0.1320 ca         1 9J0       0.041800
     11 N20          2.1570    -0.2050     0.2390 na         1 9J0       0.062100
     12 N19          1.5330    -1.3840     0.3950 nc         1 9J0      -0.491100
     13 C18          0.2440    -1.1690     0.4340 cd         1 9J0       0.380900
     14 C21         -0.7060    -2.3230     0.5800 c3         1 9J0      -0.073000
     15 C23         -0.3660    -3.4430    -0.4020 c3         1 9J0      -0.084600
     16 C22         -0.7170    -2.8410     2.0190 c3         1 9J0      -0.084600
     17 C13         -0.0100     0.2340     0.3050 ca         1 9J0      -0.268900
     18 C14          1.2650     0.8130     0.1640 ca         1 9J0       0.390500
     19 N15          1.5540     2.0880    -0.0570 nb         1 9J0      -0.668000
     20 C16          0.5020     2.8780    -0.1490 ca         1 9J0       0.386900
     21 C17         -0.8250     2.4500    -0.0090 ca         1 9J0      -0.214000
     22 C12         -1.0940     1.1170     0.2330 ca         1 9J0       0.113800
     23 N10         -2.4210     0.6920     0.4000 na         1 9J0      -0.089300
     24 C9          -2.9230     0.0180     1.4670 cc         1 9J0       0.416400
     25 N8          -4.2080    -0.1510     1.3680 nd         1 9J0      -0.676000
     26 C11         -3.4820     0.9820    -0.4240 cc         1 9J0      -0.212000
     27 C7          -4.5790     0.4400     0.1850 cd         1 9J0       0.350500
     28 C5          -5.9550     0.4330    -0.2660 cd         1 9J0      -0.237500
     29 C4          -6.5180     1.0160    -1.4170 cd         1 9J0       0.249900
     30 N3          -7.8170     0.7930    -1.4850 nc         1 9J0      -0.529800
     31 C6          -7.0320    -0.1650     0.3590 cc         1 9J0      -0.134000
     32 N2          -8.1100     0.0760    -0.4060 na         1 9J0       0.129800
     33 C1          -9.4740    -0.3150    -0.1430 c3         1 9J0       0.073900
     34 H1           9.4070     1.3340     0.2310 hn         1 9J0       0.314500
     35 H2           7.8970     2.0370     0.6330 hn         1 9J0       0.314500
     36 H3           6.1480    -1.2720    -1.6880 ha         1 9J0       0.140000
     37 H4           3.1450    -2.6140    -1.4420 hc         1 9J0       0.052033
     38 H5           2.6210    -1.1600    -2.2710 hc         1 9J0       0.052033
     39 H6           4.1470    -1.9210    -2.7150 hc         1 9J0       0.052033
     40 H7           6.1460     1.4020     1.6650 ha         1 9J0       0.117000
     41 H8           3.7150     1.1960     1.8080 ha         1 9J0       0.131000
     42 H9          -1.7090    -1.9680     0.3340 hc         1 9J0       0.064700
     43 H10          0.6180    -3.8640    -0.1970 hc         1 9J0       0.040533
     44 H11         -1.1010    -4.2450    -0.3240 hc         1 9J0       0.040533
     45 H12         -0.3700    -3.0820    -1.4310 hc         1 9J0       0.040533
     46 H13         -1.4600    -3.6300     2.1380 hc         1 9J0       0.040533
     47 H14          0.2590    -3.2500     2.2870 hc         1 9J0       0.040533
     48 H15         -0.9500    -2.0540     2.7370 hc         1 9J0       0.040533
     49 H16          0.6990     3.9280    -0.3310 h4         1 9J0       0.029100
     50 H17         -1.6250     3.1740    -0.0660 ha         1 9J0       0.141000
     51 H18         -2.3030    -0.2920     2.2950 h5         1 9J0       0.063100
     52 H19         -3.3540     1.5040    -1.3580 h4         1 9J0       0.164000
     53 H20         -6.0210     1.5810    -2.1910 h4         1 9J0       0.034100
     54 H21         -7.0950    -0.7330     1.2720 h4         1 9J0       0.166000
     55 H22        -10.0810     0.5520     0.1110 h1         1 9J0       0.056033
     56 H23         -9.8970    -0.8040    -1.0170 h1         1 9J0       0.056033
     57 H24         -9.4880    -1.0110     0.6910 h1         1 9J0       0.056033
@<TRIPOS>BOND
     1     1     2 2   
     2     2     3 1   
     3     2     4 1   
     4     3    34 1   
     5     3    35 1   
     6     4     5 ar  
     7     4     8 ar  
     8     5     6 ar  
     9     5    36 1   
    10     6     7 1   
    11     6    10 ar  
    12     7    37 1   
    13     7    38 1   
    14     7    39 1   
    15     8     9 ar  
    16     8    40 1   
    17     9    10 ar  
    18     9    41 1   
    19    10    11 1   
    20    11    12 1   
    21    11    18 1   
    22    12    13 2   
    23    13    14 1   
    24    13    17 1   
    25    14    15 1   
    26    14    16 1   
    27    14    42 1   
    28    15    43 1   
    29    15    44 1   
    30    15    45 1   
    31    16    46 1   
    32    16    47 1   
    33    16    48 1   
    34    17    18 ar  
    35    17    22 ar  
    36    18    19 ar  
    37    19    20 ar  
    38    20    21 ar  
    39    20    49 1   
    40    21    22 ar  
    41    21    50 1   
    42    22    23 1   
    43    23    24 1   
    44    23    26 1   
    45    24    25 2   
    46    24    51 1   
    47    25    27 1   
    48    26    27 2   
    49    26    52 1   
    50    27    28 1   
    51    28    29 1   
    52    28    31 2   
    53    29    30 2   
    54    29    53 1   
    55    30    32 1   
    56    31    32 1   
    57    31    54 1   
    58    32    33 1   
    59    33    55 1   
    60    33    56 1   
    61    33    57 1   
@<TRIPOS>SUBSTRUCTURE
     1 9J0         1 TEMP              0 ****  ****    0 ROOT
