@<TRIPOS>MOLECULE
9J0
   57    61     1     0     0
SMALL
No Charge or Current Charge


@<TRIPOS>ATOM
      1 O32          8.3070    -0.2400    -1.6430 o          1 9J0      -0.600100
      2 C31          7.7870    -0.2400    -0.5390 c          1 9J0       0.616700
      3 N33          8.5790    -0.2590     0.5550 nt         1 9J0      -0.602000
      4 C27          6.2860    -0.2200    -0.3410 ca         1 9J0      -0.143600
      5 C26          5.4360    -0.2000    -1.4710 ca         1 9J0      -0.059000
      6 C25          4.0330    -0.1810    -1.3320 ca         1 9J0      -0.059300
      7 C30          3.1540    -0.1630    -2.5810 c3         1 9J0      -0.047800
      8 C28          5.6990    -0.2220     0.9460 ca         1 9J0      -0.087000
      9 C29          4.3020    -0.2020     1.0910 ca         1 9J0      -0.098000
     10 C24          3.4640    -0.1800    -0.0380 ca         1 9J0       0.041800
     11 N20          2.0820    -0.1570     0.1430 na         1 9J0       0.062100
     12 N19          1.4000    -1.3360     0.4160 nc         1 9J0      -0.491100
     13 C18          0.1260    -0.9350     0.5300 cd         1 9J0       0.380900
     14 C21         -0.9570    -1.9420     0.8870 c3         1 9J0      -0.073000
     15 C23         -0.7140    -3.3480     0.2830 c3         1 9J0      -0.084600
     16 C22         -1.1660    -2.0170     2.4160 c3         1 9J0      -0.084600
     17 C13          0.0080     0.5090     0.3540 ca         1 9J0      -0.268900
     18 C14          1.2740     0.9690     0.1140 ca         1 9J0       0.390500
     19 N15          1.5640     2.2740    -0.0830 nb         1 9J0      -0.668000
     20 C16          0.5300     3.1460    -0.0360 ca         1 9J0       0.386900
     21 C17         -0.7980     2.7490     0.2100 ca         1 9J0      -0.214000
     22 C12         -1.0840     1.3890     0.4140 ca         1 9J0       0.113800
     23 N10         -2.3880     0.9770     0.6480 na         1 9J0      -0.089300
     24 C9          -3.0570     1.1670     1.8350 cc         1 9J0       0.416400
     25 N8          -4.3260     0.8010     1.6840 nd         1 9J0      -0.676000
     26 C11         -3.2520     0.5540    -0.3290 cc         1 9J0      -0.212000
     27 C7          -4.4340     0.4260     0.3560 cd         1 9J0       0.350500
     28 C5          -5.6220    -0.0370    -0.2930 cd         1 9J0      -0.237500
     29 C4          -5.7670    -0.4200    -1.6380 cd         1 9J0       0.249900
     30 N3          -7.0040    -0.7990    -1.9040 nc         1 9J0      -0.529800
     31 C6          -6.8240    -0.1780     0.3350 cc         1 9J0      -0.134000
     32 N2          -7.6490    -0.6470    -0.6850 na         1 9J0       0.129800
     33 C1          -9.0770    -0.9740    -0.5650 c3         1 9J0       0.073900
     34 H1           9.5800    -0.2730     0.4360 hn         1 9J0       0.314500
     35 H2           8.1720    -0.2600     1.4770 hn         1 9J0       0.314500
     36 H3           5.8690    -0.1990    -2.4690 ha         1 9J0       0.140000
     37 H4           2.4320    -0.9880    -2.5680 hc         1 9J0       0.052033
     38 H5           2.5910     0.7750    -2.6510 hc         1 9J0       0.052033
     39 H6           3.7450    -0.2610    -3.4990 hc         1 9J0       0.052033
     40 H7           6.3100    -0.2380     1.8440 ha         1 9J0       0.117000
     41 H8           3.8660    -0.2040     2.0870 ha         1 9J0       0.131000
     42 H9          -1.8990    -1.6030     0.4490 hc         1 9J0       0.064700
     43 H10          0.1800    -3.8170     0.7130 hc         1 9J0       0.040533
     44 H11         -1.5690    -4.0060     0.4800 hc         1 9J0       0.040533
     45 H12         -0.5810    -3.2840    -0.8040 hc         1 9J0       0.040533
     46 H13         -2.0040    -2.6790     2.6620 hc         1 9J0       0.040533
     47 H14         -0.2660    -2.4000     2.9130 hc         1 9J0       0.040533
     48 H15         -1.3850    -1.0240     2.8280 hc         1 9J0       0.040533
     49 H16          0.7730     4.1960    -0.1980 h4         1 9J0       0.029100
     50 H17         -1.5870     3.4950     0.2330 ha         1 9J0       0.141000
     51 H18         -2.5820     1.5480     2.7310 h5         1 9J0       0.063100
     52 H19         -2.9760     0.3780    -1.3600 h4         1 9J0       0.164000
     53 H20         -5.0220    -0.4360    -2.4230 h4         1 9J0       0.034100
     54 H21         -7.1510     0.0020     1.3520 h4         1 9J0       0.166000
     55 H22         -9.6560    -0.3470    -1.2530 h1         1 9J0       0.056033
     56 H23         -9.2330    -2.0310    -0.8140 h1         1 9J0       0.056033
     57 H24         -9.4140    -0.7910     0.4620 h1         1 9J0       0.056033
@<TRIPOS>BOND
     1     1     2 2   
     2     2     3 1   
     3     2     4 1   
     4     3    34 1   
     5     3    35 1   
     6     4     5 ar  
     7     4     8 ar  
     8     5     6 ar  
     9     5    36 1   
    10     6     7 1   
    11     6    10 ar  
    12     7    37 1   
    13     7    38 1   
    14     7    39 1   
    15     8     9 ar  
    16     8    40 1   
    17     9    10 ar  
    18     9    41 1   
    19    10    11 1   
    20    11    12 1   
    21    11    18 1   
    22    12    13 2   
    23    13    14 1   
    24    13    17 1   
    25    14    15 1   
    26    14    16 1   
    27    14    42 1   
    28    15    43 1   
    29    15    44 1   
    30    15    45 1   
    31    16    46 1   
    32    16    47 1   
    33    16    48 1   
    34    17    18 ar  
    35    17    22 ar  
    36    18    19 ar  
    37    19    20 ar  
    38    20    21 ar  
    39    20    49 1   
    40    21    22 ar  
    41    21    50 1   
    42    22    23 1   
    43    23    24 1   
    44    23    26 1   
    45    24    25 2   
    46    24    51 1   
    47    25    27 1   
    48    26    27 2   
    49    26    52 1   
    50    27    28 1   
    51    28    29 1   
    52    28    31 2   
    53    29    30 2   
    54    29    53 1   
    55    30    32 1   
    56    31    32 1   
    57    31    54 1   
    58    32    33 1   
    59    33    55 1   
    60    33    56 1   
    61    33    57 1   
@<TRIPOS>SUBSTRUCTURE
     1 9J0         1 TEMP              0 ****  ****    0 ROOT
