@<TRIPOS>MOLECULE
9J1
   63    66     1     0     0
SMALL
No Charge or Current Charge


@<TRIPOS>ATOM
      1 N1          -1.8700     0.6670     1.6690 n          1 9J1      -0.308000
      2 C2          -1.9060    -3.0730    -0.6360 ca         1 9J1       0.112100
      3 N2          -1.4370     2.9850     1.7740 ns         1 9J1      -0.469500
      4 N3           2.6900    -1.2000     1.0270 n          1 9J1      -0.261400
      5 C4          -1.4540    -4.1790    -2.7710 ca         1 9J1      -0.077000
      6 N4           0.8770     6.0960    -0.7120 n1         1 9J1      -0.460000
      7 C6          -2.7760    -5.3170    -1.0770 ca         1 9J1      -0.077000
      8 C7          -2.2510    -1.9240     1.5420 c3         1 9J1       0.140600
      9 C9          -1.1830     1.7460     2.2730 c          1 9J1       0.626000
     10 C1          -2.6420    -4.2080    -0.2240 ca         1 9J1      -0.192000
     11 C3          -1.3010    -3.0660    -1.9260 ca         1 9J1       0.073100
     12 C5          -2.1840    -5.3030    -2.3480 ca         1 9J1      -0.130000
     13 O1          -0.5930    -1.9860    -2.4300 os         1 9J1      -0.240200
     14 O2          -1.7630    -1.9760     0.1920 os         1 9J1      -0.324100
     15 C8          -1.6080    -0.6950     2.2290 c3         1 9J1       0.100000
     16 C10         -2.2730     3.3250     0.7640 c          1 9J1       0.590200
     17 C11         -2.9680     2.1850     0.1770 cc         1 9J1      -0.372200
     18 C12         -2.7690     0.8990     0.6230 cd         1 9J1      -0.002400
     19 C13          0.0890    -1.0740    -1.6510 ca         1 9J1       0.139100
     20 C14         -0.1180     0.3110    -1.8310 ca         1 9J1      -0.067300
     21 C15          0.6030     1.2230    -1.0140 ca         1 9J1       0.000000
     22 C16          1.4890     0.7380    -0.0140 ca         1 9J1      -0.032000
     23 C17          1.6530    -0.6590     0.1830 ca         1 9J1      -0.016000
     24 C18          1.0000    -1.5420    -0.6930 ca         1 9J1      -0.139000
     25 C19          0.4530     2.6220    -1.1820 ca         1 9J1      -0.050000
     26 C20          1.1520     3.5290    -0.3660 ca         1 9J1      -0.014000
     27 C21          1.9990     3.0440     0.6410 ca         1 9J1      -0.088000
     28 C22          2.1610     1.6630     0.8190 ca         1 9J1      -0.083000
     29 O3          -0.4040     1.6040     3.2010 o          1 9J1      -0.542000
     30 O4          -2.4170     4.4770     0.3990 o          1 9J1      -0.524000
     31 C23          0.9930     4.9450    -0.5560 cg         1 9J1       0.327000
     32 C24         -1.1050     0.8060    -2.8960 c3         1 9J1      -0.039800
     33 C25          4.0670    -0.9120     0.8190 c          1 9J1       0.602100
     34 O5           4.4380    -0.2740    -0.1600 o          1 9J1      -0.573100
     35 C26          5.0870    -1.3740     1.8860 c3         1 9J1      -0.153400
     36 C27          2.3320    -2.3640     1.8720 c3         1 9J1       0.102300
     37 C28          6.5290    -0.8420     1.7160 c3         1 9J1      -0.077100
     38 H1          -0.9440     3.7440     2.2150 hn         1 9J1       0.341500
     39 H2          -1.0030    -4.1690    -3.7600 ha         1 9J1       0.137000
     40 H3          -3.3450    -6.1870    -0.7530 ha         1 9J1       0.117000
     41 H4          -3.3450    -1.8520     1.5680 h1         1 9J1       0.042200
     42 H5          -1.9460    -2.8210     2.0970 h1         1 9J1       0.042200
     43 H6          -3.1220    -4.2470     0.7500 ha         1 9J1       0.115000
     44 H7          -2.2930    -6.1600    -3.0090 ha         1 9J1       0.124000
     45 H8          -0.5210    -0.8540     2.2340 h1         1 9J1       0.082700
     46 H9          -1.9310    -0.6940     3.2780 h1         1 9J1       0.082700
     47 H10         -3.6530     2.4170    -0.6300 ha         1 9J1       0.224000
     48 H11         -3.2720     0.0290     0.2150 h4         1 9J1       0.199000
     49 H12          1.1800    -2.6110    -0.6220 ha         1 9J1       0.129000
     50 H13         -0.2060     3.0260    -1.9460 ha         1 9J1       0.126000
     51 H14          2.5330     3.7360     1.2900 ha         1 9J1       0.124000
     52 H15          2.8070     1.3240     1.6230 ha         1 9J1       0.118000
     53 H16         -1.8740     1.4490    -2.4510 hc         1 9J1       0.047367
     54 H17         -0.5870     1.3840    -3.6700 hc         1 9J1       0.047367
     55 H18         -1.6360    -0.0050    -3.4050 hc         1 9J1       0.047367
     56 H19          4.6850    -1.1250     2.8750 hc         1 9J1       0.055200
     57 H20          5.0760    -2.4690     1.9170 hc         1 9J1       0.055200
     58 H21          2.6310    -2.1810     2.9110 h1         1 9J1       0.038700
     59 H22          1.2480    -2.5280     1.8520 h1         1 9J1       0.038700
     60 H23          2.8330    -3.2650     1.4980 h1         1 9J1       0.038700
     61 H24          6.9540    -1.1690     0.7590 hc         1 9J1       0.043033
     62 H25          6.5440     0.2540     1.7470 hc         1 9J1       0.043033
     63 H26          7.1720    -1.2160     2.5220 hc         1 9J1       0.043033
@<TRIPOS>BOND
     1     1     9 1   
     2     1    15 1   
     3     1    18 1   
     4     2    10 ar  
     5     2    11 ar  
     6     2    14 1   
     7     3     9 1   
     8     3    16 1   
     9     3    38 1   
    10     4    23 1   
    11     4    33 1   
    12     4    36 1   
    13     5    11 ar  
    14     5    12 ar  
    15     5    39 1   
    16     6    31 3   
    17     7    10 ar  
    18     7    12 ar  
    19     7    40 1   
    20     8    14 1   
    21     8    15 1   
    22     8    41 1   
    23     8    42 1   
    24     9    29 2   
    25    10    43 1   
    26    11    13 1   
    27    12    44 1   
    28    13    19 1   
    29    15    45 1   
    30    15    46 1   
    31    16    17 1   
    32    16    30 2   
    33    17    18 2   
    34    17    47 1   
    35    18    48 1   
    36    19    20 ar  
    37    19    24 ar  
    38    20    21 ar  
    39    20    32 1   
    40    21    22 ar  
    41    21    25 ar  
    42    22    23 ar  
    43    22    28 ar  
    44    23    24 ar  
    45    24    49 1   
    46    25    26 ar  
    47    25    50 1   
    48    26    27 ar  
    49    26    31 1   
    50    27    28 ar  
    51    27    51 1   
    52    28    52 1   
    53    32    53 1   
    54    32    54 1   
    55    32    55 1   
    56    33    34 2   
    57    33    35 1   
    58    35    37 1   
    59    35    56 1   
    60    35    57 1   
    61    36    58 1   
    62    36    59 1   
    63    36    60 1   
    64    37    61 1   
    65    37    62 1   
    66    37    63 1   
@<TRIPOS>SUBSTRUCTURE
     1 9J1         1 TEMP              0 ****  ****    0 ROOT
