@<TRIPOS>MOLECULE
9J1
   63    66     1     0     0
SMALL
bcc


@<TRIPOS>ATOM
      1 N1          -3.4390     0.4780     1.4070 n          1 9J1      -0.375000
      2 C2          -1.6010    -2.6010    -0.4970 ca         1 9J1       0.112100
      3 N2          -3.6220     2.3260     0.0280 ns         1 9J1      -0.603500
      4 N3           3.0730    -1.2220     1.0980 n          1 9J1      -0.421000
      5 C4          -0.6830    -3.3020    -2.6240 ca         1 9J1      -0.095000
      6 N4           2.6590     6.2890    -0.0000 n1         1 9J1      -0.370800
      7 C6          -1.7050    -4.9120    -1.1740 ca         1 9J1      -0.095000
      8 C7          -2.4790    -1.7870     1.5470 c3         1 9J1       0.117400
      9 C9          -2.8170     1.5790     0.8530 c          1 9J1       0.835500
     10 C1          -1.9680    -3.9170    -0.2380 ca         1 9J1      -0.210000
     11 C3          -0.9450    -2.3090    -1.7010 ca         1 9J1       0.073100
     12 C5          -1.0710    -4.6120    -2.3680 ca         1 9J1      -0.148000
     13 O1          -0.6050    -1.0160    -1.9960 os         1 9J1      -0.240200
     14 O2          -1.8100    -1.5600     0.3260 os         1 9J1      -0.300900
     15 C8          -2.6720    -0.4510     2.2300 c3         1 9J1       0.100000
     16 C10         -4.9560     2.1230    -0.2860 c          1 9J1       0.732700
     17 C11         -5.5260     0.9660     0.3590 cc         1 9J1      -0.322200
     18 C12         -4.7530     0.2140     1.1580 cd         1 9J1       0.047600
     19 C13          0.3280    -0.3740    -1.2390 ca         1 9J1       0.139100
     20 C14          0.3680     0.9980    -1.3090 ca         1 9J1      -0.067300
     21 C15          1.3760     1.6690    -0.5630 ca         1 9J1       0.000000
     22 C16          2.2880     0.9470     0.2550 ca         1 9J1      -0.032000
     23 C17          2.1940    -0.4650     0.2840 ca         1 9J1       0.076600
     24 C18          1.2430    -1.1040    -0.4550 ca         1 9J1      -0.157000
     25 C19          1.5010     3.0740    -0.6070 ca         1 9J1      -0.068000
     26 C20          2.4670     3.7200     0.1280 ca         1 9J1      -0.014000
     27 C21          3.3600     3.0010     0.9540 ca         1 9J1      -0.106000
     28 C22          3.2630     1.6420     1.0070 ca         1 9J1      -0.101000
     29 O3          -1.6660     1.8820     1.0750 o          1 9J1      -0.617500
     30 O4          -5.5400     2.8850    -1.0360 o          1 9J1      -0.599500
     31 C23          2.5680     5.1420     0.0550 cg         1 9J1       0.237800
     32 C24         -0.6080     1.7630    -2.1520 c3         1 9J1      -0.039800
     33 C25          4.2950    -1.5490     0.5970 c          1 9J1       0.669100
     34 O5           4.6280    -1.2110    -0.5270 o          1 9J1      -0.573100
     35 C26          5.2000    -2.3420     1.5120 c3         1 9J1      -0.153400
     36 C27          2.6240    -1.6010     2.4300 c3         1 9J1       0.102300
     37 C28          6.5560    -2.6460     0.8990 c3         1 9J1      -0.077100
     38 H1          -3.1800     3.1430    -0.3750 hn         1 9J1       0.341500
     39 H2          -0.1760    -3.0430    -3.5460 ha         1 9J1       0.155000
     40 H3          -2.0050    -5.9280    -0.9560 ha         1 9J1       0.135000
     41 H4          -3.4450    -2.2750     1.3740 h1         1 9J1       0.042200
     42 H5          -1.8970    -2.4370     2.2090 h1         1 9J1       0.042200
     43 H6          -2.4650    -4.1860     0.6850 ha         1 9J1       0.133000
     44 H7          -0.8680    -5.3880    -3.0930 ha         1 9J1       0.142000
     45 H8          -1.7150     0.0070     2.4610 h1         1 9J1       0.082700
     46 H9          -3.1980    -0.6130     3.1710 h1         1 9J1       0.082700
     47 H10         -6.5630     0.7170     0.1990 ha         1 9J1       0.174000
     48 H11         -5.1520    -0.6570     1.6590 h4         1 9J1       0.149000
     49 H12          1.2050    -2.1860    -0.4340 ha         1 9J1       0.147000
     50 H13          0.8380     3.6600    -1.2270 ha         1 9J1       0.144000
     51 H14          4.1110     3.5260     1.5280 ha         1 9J1       0.142000
     52 H15          3.9440     1.0880     1.6380 ha         1 9J1       0.136000
     53 H16         -0.9410     2.6680    -1.6480 hc         1 9J1       0.047367
     54 H17         -0.1610     2.0650    -3.1010 hc         1 9J1       0.047367
     55 H18         -1.4940     1.1770    -2.3780 hc         1 9J1       0.047367
     56 H19          5.3260    -1.7920     2.4500 hc         1 9J1       0.055200
     57 H20          4.6960    -3.2720     1.7910 hc         1 9J1       0.055200
     58 H21          3.2070    -1.1130     3.2130 h1         1 9J1       0.038700
     59 H22          1.5870    -1.2980     2.5470 h1         1 9J1       0.038700
     60 H23          2.6740    -2.6800     2.5790 h1         1 9J1       0.038700
     61 H24          6.4650    -3.2530    -0.0010 hc         1 9J1       0.043033
     62 H25          7.0940    -1.7360     0.6380 hc         1 9J1       0.043033
     63 H26          7.1650    -3.1990     1.6130 hc         1 9J1       0.043033
@<TRIPOS>BOND
     1     1     9 1   
     2     1    15 1   
     3     1    18 1   
     4     2    10 ar  
     5     2    11 ar  
     6     2    14 1   
     7     3     9 1   
     8     3    16 1   
     9     3    38 1   
    10     4    23 1   
    11     4    33 1   
    12     4    36 1   
    13     5    11 ar  
    14     5    12 ar  
    15     5    39 1   
    16     6    31 3   
    17     7    10 ar  
    18     7    12 ar  
    19     7    40 1   
    20     8    14 1   
    21     8    15 1   
    22     8    41 1   
    23     8    42 1   
    24     9    29 2   
    25    10    43 1   
    26    11    13 1   
    27    12    44 1   
    28    13    19 1   
    29    15    45 1   
    30    15    46 1   
    31    16    17 1   
    32    16    30 2   
    33    17    18 2   
    34    17    47 1   
    35    18    48 1   
    36    19    20 ar  
    37    19    24 ar  
    38    20    21 ar  
    39    20    32 1   
    40    21    22 ar  
    41    21    25 ar  
    42    22    23 ar  
    43    22    28 ar  
    44    23    24 ar  
    45    24    49 1   
    46    25    26 ar  
    47    25    50 1   
    48    26    27 ar  
    49    26    31 1   
    50    27    28 ar  
    51    27    51 1   
    52    28    52 1   
    53    32    53 1   
    54    32    54 1   
    55    32    55 1   
    56    33    34 2   
    57    33    35 1   
    58    35    37 1   
    59    35    56 1   
    60    35    57 1   
    61    36    58 1   
    62    36    59 1   
    63    36    60 1   
    64    37    61 1   
    65    37    62 1   
    66    37    63 1   
@<TRIPOS>SUBSTRUCTURE
     1 9J1         1 TEMP              0 ****  ****    0 ROOT
