@<TRIPOS>MOLECULE
9J2
   51    54     1     0     0
SMALL
bcc


@<TRIPOS>ATOM
      1 CBD          0.7980    -2.7710     3.0220 c3         1 9J2       0.127700
      2 OBC         -0.2340    -2.1550     2.2500 os         1 9J2      -0.420900
      3 CAZ         -0.8770    -2.9100     1.3740 c          1 9J2       0.642100
      4 OBB         -0.6570    -4.0830     1.2090 o          1 9J2      -0.520000
      5 CAV         -1.9020    -2.1220     0.5870 c3         1 9J2      -0.127700
      6 CBA         -3.2260    -2.8710     0.5070 c3         1 9J2      -0.085100
      7 CAJ         -1.3220    -1.9000    -0.8330 c3         1 9J2       0.101200
      8 NAI          0.0780    -1.5190    -0.8490 n2         1 9J2      -0.577900
      9 CAK         -2.1040    -0.9370    -1.6550 cc         1 9J2       0.377800
     10 NAO         -2.7230    -1.1860    -2.7650 nd         1 9J2      -0.334000
     11 NAP         -3.2000    -0.0100    -3.2470 nd         1 9J2      -0.356000
     12 CAQ         -2.8650     0.9400    -2.4230 cc         1 9J2       0.409800
     13 CAY         -3.1530     2.3810    -2.6150 c3         1 9J2      -0.125400
     14 NAL         -2.1630     0.3980    -1.3810 na         1 9J2      -0.282800
     15 CAM         -1.6310     1.0210    -0.2360 ca         1 9J2       0.067800
     16 CAR         -2.3930     1.9660     0.4240 ca         1 9J2      -0.189000
     17 CAS         -1.9050     2.5860     1.5750 ca         1 9J2       0.176100
     18 OAW         -2.7150     3.4830     2.1430 os         1 9J2      -0.310900
     19 CAX         -2.3110     4.0970     3.3550 c3         1 9J2       0.123700
     20 CAT         -0.6490     2.2310     2.0630 ca         1 9J2      -0.226000
     21 CAU          0.0930     1.2780     1.3900 ca         1 9J2      -0.039000
     22 CAN         -0.3640     0.6500     0.2340 ca         1 9J2      -0.228900
     23 CAG          0.4730    -0.4030    -0.3810 ce         1 9J2       0.554500
     24 CAA          1.9370    -0.1590    -0.4220 ca         1 9J2      -0.142900
     25 CAB          2.8230    -1.2210    -0.2500 ca         1 9J2      -0.087500
     26 CAC          4.1910    -1.0240    -0.3220 ca         1 9J2      -0.131000
     27 CAD          4.6760     0.2490    -0.5870 ca         1 9J2       0.040400
     28 CLA          6.3850     0.5020    -0.6860 cl         1 9J2      -0.105400
     29 CAE          3.8170     1.3200    -0.7710 ca         1 9J2      -0.131000
     30 CAF          2.4500     1.1100    -0.6790 ca         1 9J2      -0.087500
     31 HBE          1.5800    -3.1850     2.3850 h1         1 9J2       0.048700
     32 HBF          1.2170    -1.9850     3.6430 h1         1 9J2       0.048700
     33 HBD          0.3990    -3.5620     3.6560 h1         1 9J2       0.048700
     34 HAV         -2.0650    -1.1670     1.0860 hc         1 9J2       0.079700
     35 HBA         -3.1070    -3.8440     0.0300 hc         1 9J2       0.053033
     36 HBB         -3.6430    -3.0270     1.5010 hc         1 9J2       0.053033
     37 HBC         -3.9550    -2.3000    -0.0680 hc         1 9J2       0.053033
     38 HAJ         -1.3910    -2.8570    -1.3550 h1         1 9J2       0.121700
     39 HA2         -4.0000     2.7160    -2.0150 hc         1 9J2       0.062367
     40 HA0         -2.2940     3.0000    -2.3570 hc         1 9J2       0.062367
     41 HA1         -3.4010     2.5530    -3.6600 hc         1 9J2       0.062367
     42 HAR         -3.3880     2.2120     0.0790 ha         1 9J2       0.163000
     43 HAZ         -3.1260     4.7520     3.6520 h1         1 9J2       0.047700
     44 HAY         -2.1420     3.3600     4.1430 h1         1 9J2       0.047700
     45 HAX         -1.4060     4.6950     3.2260 h1         1 9J2       0.047700
     46 HAT         -0.2420     2.6730     2.9610 ha         1 9J2       0.146000
     47 HAU          1.0590     1.0060     1.7940 ha         1 9J2       0.148000
     48 HAB          2.4390    -2.2120    -0.0470 ha         1 9J2       0.147500
     49 HAC          4.8700    -1.8510    -0.1710 ha         1 9J2       0.151000
     50 HAE          4.2030     2.3070    -0.9850 ha         1 9J2       0.151000
     51 HAF          1.7820     1.9500    -0.8250 ha         1 9J2       0.147500
@<TRIPOS>BOND
     1     1     2 1   
     2     1    31 1   
     3     1    32 1   
     4     1    33 1   
     5     2     3 1   
     6     3     4 2   
     7     3     5 1   
     8     5     6 1   
     9     5     7 1   
    10     5    34 1   
    11     6    35 1   
    12     6    36 1   
    13     6    37 1   
    14     7     8 1   
    15     7     9 1   
    16     7    38 1   
    17     8    23 2   
    18     9    10 2   
    19     9    14 1   
    20    10    11 1   
    21    11    12 2   
    22    12    13 1   
    23    12    14 1   
    24    13    39 1   
    25    13    40 1   
    26    13    41 1   
    27    14    15 1   
    28    15    16 ar  
    29    15    22 ar  
    30    16    17 ar  
    31    16    42 1   
    32    17    18 1   
    33    17    20 ar  
    34    18    19 1   
    35    19    43 1   
    36    19    44 1   
    37    19    45 1   
    38    20    21 ar  
    39    20    46 1   
    40    21    22 ar  
    41    21    47 1   
    42    22    23 1   
    43    23    24 1   
    44    24    25 ar  
    45    24    30 ar  
    46    25    26 ar  
    47    25    48 1   
    48    26    27 ar  
    49    26    49 1   
    50    27    28 1   
    51    27    29 ar  
    52    29    30 ar  
    53    29    50 1   
    54    30    51 1   
@<TRIPOS>SUBSTRUCTURE
     1 9J2         1 TEMP              0 ****  ****    0 ROOT
