@<TRIPOS>MOLECULE
9J2
   51    54     1     0     0
SMALL
No Charge or Current Charge


@<TRIPOS>ATOM
      1 CBD          0.0410    -3.6910     3.6630 c3         1 9J2       0.150900
      2 OBC         -0.6730    -2.8080     2.7800 os         1 9J2      -0.444100
      3 CAZ         -1.0690    -3.2970     1.5600 c          1 9J2       0.593100
      4 OBB         -0.8970    -4.4530     1.1930 o          1 9J2      -0.471000
      5 CAV         -1.8340    -2.2450     0.7400 c3         1 9J2      -0.127700
      6 CBA         -3.3240    -2.6500     0.5970 c3         1 9J2      -0.085100
      7 CAJ         -1.1330    -2.0030    -0.6290 c3         1 9J2       0.101200
      8 NAI          0.2740    -1.5820    -0.4210 n2         1 9J2      -0.577900
      9 CAK         -1.8620    -1.0340    -1.5450 cc         1 9J2       0.377800
     10 NAO         -2.4080    -1.3170    -2.7200 nd         1 9J2      -0.334000
     11 NAP         -2.8900    -0.1400    -3.2670 nd         1 9J2      -0.356000
     12 CAQ         -2.6320     0.8500    -2.4230 cc         1 9J2       0.409800
     13 CAY         -2.9130     2.3040    -2.6820 c3         1 9J2      -0.125400
     14 NAL         -2.0150     0.3040    -1.3260 na         1 9J2      -0.282800
     15 CAM         -1.5350     0.9810    -0.2060 ca         1 9J2       0.067800
     16 CAR         -2.3500     1.9250     0.4460 ca         1 9J2      -0.171000
     17 CAS         -1.8970     2.6110     1.5800 ca         1 9J2       0.176100
     18 OAW         -2.7480     3.5260     2.1630 os         1 9J2      -0.334100
     19 CAX         -2.3800     4.2800     3.3320 c3         1 9J2       0.146900
     20 CAT         -0.6100     2.3420     2.0830 ca         1 9J2      -0.208000
     21 CAU          0.2020     1.3850     1.4550 ca         1 9J2      -0.021000
     22 CAN         -0.2490     0.6960     0.3100 ca         1 9J2      -0.228900
     23 CAG          0.6470    -0.3400    -0.3000 ce         1 9J2       0.554500
     24 CAA          2.0720     0.0400    -0.5910 ca         1 9J2      -0.142900
     25 CAB          3.0880    -0.9440    -0.6620 ca         1 9J2      -0.069500
     26 CAC          4.4120    -0.5840    -0.9690 ca         1 9J2      -0.113000
     27 CAD          4.7350     0.7560    -1.2240 ca         1 9J2       0.132000
     28 ClA          6.3920     1.2030    -1.6110 cl         1 9J2      -0.197000
     29 CAE          3.7360     1.7390    -1.1810 ca         1 9J2      -0.113000
     30 CAF          2.4110     1.3840    -0.8740 ca         1 9J2      -0.069500
     31 HBE          0.9730    -4.0380     3.1990 h1         1 9J2       0.048700
     32 HBF          0.2980    -3.1720     4.5960 h1         1 9J2       0.048700
     33 HBD         -0.5690    -4.5670     3.9190 h1         1 9J2       0.048700
     34 HAV         -1.8140    -1.3120     1.3150 hc         1 9J2       0.079700
     35 HBA         -3.4270    -3.5620    -0.0030 hc         1 9J2       0.053033
     36 HBB         -3.7660    -2.8390     1.5830 hc         1 9J2       0.053033
     37 HBC         -3.9070    -1.8540     0.1190 hc         1 9J2       0.053033
     38 HAJ         -1.1330    -2.9660    -1.1590 h1         1 9J2       0.121700
     39 HA2         -3.8710     2.5980    -2.2410 hc         1 9J2       0.062367
     40 HA0         -2.1260     2.9390    -2.2590 hc         1 9J2       0.062367
     41 HA1         -2.9610     2.5040    -3.7580 hc         1 9J2       0.062367
     42 HAR         -3.3550     2.1260     0.0860 ha         1 9J2       0.145000
     43 HAZ         -3.1990     4.9470     3.6280 h1         1 9J2       0.047700
     44 HAY         -2.1650     3.6120     4.1760 h1         1 9J2       0.047700
     45 HAX         -1.4940     4.8970     3.1360 h1         1 9J2       0.047700
     46 HAT         -0.2280     2.8510     2.9630 ha         1 9J2       0.128000
     47 HAU          1.1870     1.1710     1.8690 ha         1 9J2       0.130000
     48 HAB          2.8590    -1.9900    -0.4700 ha         1 9J2       0.129500
     49 HAC          5.1870    -1.3450    -1.0110 ha         1 9J2       0.133000
     50 HAE          3.9870     2.7760    -1.3910 ha         1 9J2       0.133000
     51 HAF          1.6480     2.1610    -0.8640 ha         1 9J2       0.129500
@<TRIPOS>BOND
     1     1     2 1   
     2     1    31 1   
     3     1    32 1   
     4     1    33 1   
     5     2     3 1   
     6     3     4 2   
     7     3     5 1   
     8     5     6 1   
     9     5     7 1   
    10     5    34 1   
    11     6    35 1   
    12     6    36 1   
    13     6    37 1   
    14     7     8 1   
    15     7     9 1   
    16     7    38 1   
    17     8    23 2   
    18     9    10 2   
    19     9    14 1   
    20    10    11 1   
    21    11    12 2   
    22    12    13 1   
    23    12    14 1   
    24    13    39 1   
    25    13    40 1   
    26    13    41 1   
    27    14    15 1   
    28    15    16 ar  
    29    15    22 ar  
    30    16    17 ar  
    31    16    42 1   
    32    17    18 1   
    33    17    20 ar  
    34    18    19 1   
    35    19    43 1   
    36    19    44 1   
    37    19    45 1   
    38    20    21 ar  
    39    20    46 1   
    40    21    22 ar  
    41    21    47 1   
    42    22    23 1   
    43    23    24 1   
    44    24    25 ar  
    45    24    30 ar  
    46    25    26 ar  
    47    25    48 1   
    48    26    27 ar  
    49    26    49 1   
    50    27    28 1   
    51    27    29 ar  
    52    29    30 ar  
    53    29    50 1   
    54    30    51 1   
@<TRIPOS>SUBSTRUCTURE
     1 9J2         1 TEMP              0 ****  ****    0 ROOT
