@<TRIPOS>MOLECULE
9J3
   19    18     1     0     0
SMALL
No Charge or Current Charge


@<TRIPOS>ATOM
      1 OAA         -3.5210    -0.1660     0.0710 o          1 9J3      -0.738500
      2 CAC         -2.5930     0.4260    -0.4580 c          1 9J3       0.718000
      3 OAB         -2.6680     1.5740    -0.8680 o          1 9J3      -0.738500
      4 CAD         -1.2340    -0.2860    -0.5400 c3         1 9J3      -0.205400
      5 CAE         -0.4000    -0.0070     0.7420 c3         1 9J3      -0.107400
      6 CAF          0.9690    -0.6960     0.6970 c          1 9J3       0.581100
      7 OAG          1.1530    -1.8620     1.0220 o          1 9J3      -0.515000
      8 OAH          1.9490     0.1430     0.2330 os         1 9J3      -0.462100
      9 CAI          3.2860    -0.3740     0.1260 c3         1 9J3       0.164600
     10 CAJ          4.1770     0.7560    -0.4140 c3         1 9J3      -0.092100
     11 H2          -1.3750    -1.3730    -0.5770 hc         1 9J3       0.032700
     12 H3          -0.6450     0.1110    -1.3760 hc         1 9J3       0.032700
     13 H4          -0.2500     1.0780     0.8080 hc         1 9J3       0.072700
     14 H5          -0.9540    -0.3700     1.6150 hc         1 9J3       0.072700
     15 H6           3.6600    -0.6980     1.1060 h1         1 9J3       0.037700
     16 H7           3.3210    -1.2280    -0.5630 h1         1 9J3       0.037700
     17 H8           5.2120     0.4080    -0.5140 hc         1 9J3       0.037033
     18 H9           3.8290     1.0860    -1.4000 hc         1 9J3       0.037033
     19 H10          4.1680     1.6150     0.2670 hc         1 9J3       0.037033
@<TRIPOS>BOND
     1     1     2 1   
     2     2     3 1   
     3     2     4 1   
     4     4     5 1   
     5     4    11 1   
     6     4    12 1   
     7     5     6 1   
     8     5    13 1   
     9     5    14 1   
    10     6     7 2   
    11     6     8 1   
    12     8     9 1   
    13     9    10 1   
    14     9    15 1   
    15     9    16 1   
    16    10    17 1   
    17    10    18 1   
    18    10    19 1   
@<TRIPOS>SUBSTRUCTURE
     1 9J3         1 TEMP              0 ****  ****    0 ROOT
