@<TRIPOS>MOLECULE
9J3
   19    18     1     0     0
SMALL
abcg2


@<TRIPOS>ATOM
      1 OAA         -3.8900    -0.4080    -0.0230 o          1 9J3      -0.738500
      2 CAC         -2.8380     0.2640    -0.0390 c          1 9J3       0.718000
      3 OAB         -2.7550     1.5080    -0.0680 o          1 9J3      -0.738500
      4 CAD         -1.5290    -0.5460    -0.0230 c3         1 9J3      -0.205400
      5 CAE         -0.2680     0.2960    -0.0040 c3         1 9J3      -0.107400
      6 CAF          1.0020    -0.5110     0.0030 c          1 9J3       0.581100
      7 OAG          1.0710    -1.7160     0.0030 o          1 9J3      -0.515000
      8 OAH          2.0750     0.2750     0.0100 os         1 9J3      -0.462100
      9 CAI          3.3680    -0.3480     0.0200 c3         1 9J3       0.164600
     10 CAJ          4.4090     0.7460     0.0260 c3         1 9J3      -0.092100
     11 H2          -1.5500    -1.2150     0.8430 hc         1 9J3       0.032700
     12 H3          -1.5280    -1.2070    -0.8960 hc         1 9J3       0.032700
     13 H4          -0.2360     0.9670    -0.8660 hc         1 9J3       0.072700
     14 H5          -0.2530     0.9540     0.8690 hc         1 9J3       0.072700
     15 H6           3.4660    -0.9830     0.9030 h1         1 9J3       0.037700
     16 H7           3.4780    -0.9840    -0.8610 h1         1 9J3       0.037700
     17 H8           5.4010     0.2950     0.0330 hc         1 9J3       0.037033
     18 H9           4.3360     1.3750    -0.8610 hc         1 9J3       0.037033
     19 H10          4.3230     1.3770     0.9100 hc         1 9J3       0.037033
@<TRIPOS>BOND
     1     1     2 1   
     2     2     3 1   
     3     2     4 1   
     4     4     5 1   
     5     4    11 1   
     6     4    12 1   
     7     5     6 1   
     8     5    13 1   
     9     5    14 1   
    10     6     7 2   
    11     6     8 1   
    12     8     9 1   
    13     9    10 1   
    14     9    15 1   
    15     9    16 1   
    16    10    17 1   
    17    10    18 1   
    18    10    19 1   
@<TRIPOS>SUBSTRUCTURE
     1 9J3         1 TEMP              0 ****  ****    0 ROOT
