@<TRIPOS>MOLECULE
9J4
   55    58     1     0     0
SMALL
abcg2


@<TRIPOS>ATOM
      1 C18          3.3700    -2.5830     1.4990 c5         1 9J4      -0.071400
      2 C17          3.2020    -2.5910    -0.0210 c5         1 9J4       0.171200
      3 C16          1.7050    -2.2050    -0.1970 c5         1 9J4      -0.046000
      4 C15          1.5330    -1.0630     0.8490 c5         1 9J4       0.242500
      5 C19          2.5330    -1.3960     1.9850 c5         1 9J4      -0.082400
      6 C20          1.3480    -1.7840    -1.6180 c3         1 9J4      -0.087100
      7 C22          0.7790    -3.3580     0.2050 c3         1 9J4      -0.087100
      8 C23         -3.9890    -1.4120     0.6170 ca         1 9J4      -0.109000
      9 C24         -5.1750    -2.1310     0.6320 ca         1 9J4      -0.108000
     10 C27         -5.0590     0.3250    -0.6430 ca         1 9J4      -0.109000
     11 C1          -0.4560     1.1200     0.0300 cc         1 9J4      -0.227000
     12 N2          -1.2130     2.2490    -0.2480 na         1 9J4       0.285900
     13 N3          -0.7560     3.4880    -0.5060 nc         1 9J4      -0.545800
     14 C4           0.5320     3.5950    -0.4710 cd         1 9J4       0.389900
     15 C5           1.4640     2.5710    -0.1910 cd         1 9J4      -0.415600
     16 C6           0.9750     1.2650     0.0660 cc         1 9J4       0.504000
     17 C7          -1.3610     0.0720     0.1530 cd         1 9J4      -0.194000
     18 C8          -2.6560     0.5830    -0.0460 cd         1 9J4      -0.104200
     19 C9          -2.5230     1.9390    -0.2910 cc         1 9J4      -0.158100
     20 N10          1.8010     0.2590     0.3250 nu         1 9J4      -0.911200
     21 N12          3.2560     4.1750    -0.0270 nt         1 9J4      -0.599000
     22 O13          3.7670     2.0010    -0.2300 o          1 9J4      -0.650100
     23 C14         -3.9100    -0.1720    -0.0220 ca         1 9J4      -0.000800
     24 N21          4.0080    -1.4820    -0.5310 n8         1 9J4      -0.999200
     25 C25         -6.3110    -1.6240     0.0140 ca         1 9J4      -0.116000
     26 C26         -6.2460    -0.3910    -0.6220 ca         1 9J4      -0.108000
     27 C28          3.5970    -3.9300    -0.6380 c3         1 9J4      -0.114100
     28 H1           3.0140    -3.5220     1.9260 hc         1 9J4       0.046700
     29 H2           4.4220    -2.4980     1.7840 hc         1 9J4       0.046700
     30 H3           0.5240    -1.0680     1.2520 h1         1 9J4       0.064700
     31 H4           2.0020    -1.6280     2.9090 hc         1 9J4       0.055700
     32 H5           3.1590    -0.5290     2.1970 hc         1 9J4       0.055700
     33 H6           1.4910    -2.6140    -2.3120 hc         1 9J4       0.039700
     34 H7           0.2990    -1.4900    -1.6880 hc         1 9J4       0.039700
     35 H8           1.9390    -0.9410    -1.9730 hc         1 9J4       0.039700
     36 H9           0.9790    -3.7380     1.2080 hc         1 9J4       0.039700
     37 H10         -0.2630    -3.0300     0.1870 hc         1 9J4       0.039700
     38 H11          0.8600    -4.1950    -0.4890 hc         1 9J4       0.039700
     39 H12         -3.1210    -1.8170     1.1210 ha         1 9J4       0.109500
     40 H13         -5.2130    -3.0890     1.1360 ha         1 9J4       0.109500
     41 H14         -5.0240     1.2750    -1.1620 ha         1 9J4       0.109500
     42 H15          0.8840     4.5920    -0.7080 h4         1 9J4       0.022100
     43 H16         -1.1310    -0.9630     0.3260 ha         1 9J4       0.202000
     44 H17         -3.2570     2.7040    -0.4840 h4         1 9J4       0.233000
     45 H18          2.7840     0.4480     0.1340 hn         1 9J4       0.559000
     46 H19          2.6200     4.8790     0.3030 hn         1 9J4       0.307000
     47 H20          4.2360     4.3910     0.0550 hn         1 9J4       0.307000
     48 H21          4.9790    -1.6310    -0.2800 hn         1 9J4       0.399500
     49 H22          3.9890    -1.4640    -1.5430 hn         1 9J4       0.399500
     50 H24         -7.2370    -2.1830     0.0310 ha         1 9J4       0.111000
     51 H25         -7.1230     0.0140    -1.1120 ha         1 9J4       0.109500
     52 H26          3.4160    -3.9500    -1.7150 hc         1 9J4       0.039367
     53 H27          4.6640    -4.1040    -0.4840 hc         1 9J4       0.039367
     54 H28          3.0620    -4.7690    -0.1910 hc         1 9J4       0.039367
     55 C11          2.9030     2.8770    -0.1470 c          1 9J4       0.645700
@<TRIPOS>BOND
     1     1     2 1   
     2     1     5 1   
     3     1    28 1   
     4     1    29 1   
     5     2     3 1   
     6     2    24 1   
     7     2    27 1   
     8     3     4 1   
     9     3     6 1   
    10     3     7 1   
    11     4     5 1   
    12     4    20 1   
    13     4    30 1   
    14     5    31 1   
    15     5    32 1   
    16     6    33 1   
    17     6    34 1   
    18     6    35 1   
    19     7    36 1   
    20     7    37 1   
    21     7    38 1   
    22     8     9 ar  
    23     8    23 ar  
    24     8    39 1   
    25     9    25 ar  
    26     9    40 1   
    27    10    23 ar  
    28    10    26 ar  
    29    10    41 1   
    30    11    12 1   
    31    11    16 1   
    32    11    17 2   
    33    12    13 1   
    34    12    19 1   
    35    13    14 2   
    36    14    15 1   
    37    14    42 1   
    38    15    16 2   
    39    15    55 1   
    40    16    20 1   
    41    17    18 1   
    42    17    43 1   
    43    18    19 2   
    44    18    23 1   
    45    19    44 1   
    46    20    45 1   
    47    21    46 1   
    48    21    47 1   
    49    21    55 1   
    50    22    55 2   
    51    24    48 1   
    52    24    49 1   
    53    25    26 ar  
    54    25    50 1   
    55    26    51 1   
    56    27    52 1   
    57    27    53 1   
    58    27    54 1   
@<TRIPOS>SUBSTRUCTURE
     1 9J4         1 TEMP              0 ****  ****    0 ROOT
