@<TRIPOS>MOLECULE
9J4
   55    58     1     0     0
SMALL
No Charge or Current Charge


@<TRIPOS>ATOM
      1 C18          3.3950    -2.2370     1.6430 c5         1 9J4      -0.071400
      2 C17          3.2690    -2.5870     0.1300 c5         1 9J4       0.171200
      3 C16          1.7170    -2.3290    -0.1140 c5         1 9J4      -0.046000
      4 C15          1.4700    -0.9880     0.7100 c5         1 9J4       0.242500
      5 C19          2.6400    -0.8810     1.7520 c5         1 9J4      -0.082400
      6 C20          1.3250    -2.2920    -1.6320 c3         1 9J4      -0.087100
      7 C22          0.7990    -3.4430     0.4960 c3         1 9J4      -0.087100
      8 C23         -3.8970    -1.5240    -0.3180 ca         1 9J4      -0.109000
      9 C24         -5.0830    -2.2770    -0.3820 ca         1 9J4      -0.108000
     10 C27         -5.2030     0.5080    -0.0710 ca         1 9J4      -0.109000
     11 C1          -0.4870     1.2300    -0.0750 cc         1 9J4      -0.227000
     12 N2          -1.2740     2.3350     0.0550 na         1 9J4       0.285900
     13 N3          -0.8040     3.6160     0.1420 nc         1 9J4      -0.545800
     14 C4           0.5310     3.6790     0.0700 cd         1 9J4       0.389900
     15 C5           1.4630     2.5810    -0.0660 cd         1 9J4      -0.415600
     16 C6           0.9320     1.3140    -0.1070 cc         1 9J4       0.504000
     17 C7          -1.3610     0.1750    -0.1880 cd         1 9J4      -0.194000
     18 C8          -2.6960     0.6760    -0.0930 cd         1 9J4      -0.104200
     19 C9          -2.6260     2.0480     0.0640 cc         1 9J4      -0.158100
     20 N10          1.6820     0.1680    -0.1990 nu         1 9J4      -0.911200
     21 N12          3.3380     4.0750    -0.0760 nt         1 9J4      -0.599000
     22 O13          3.7420     1.9200    -0.3270 o          1 9J4      -0.650100
     23 C14         -3.9410    -0.1200    -0.1620 ca         1 9J4      -0.000800
     24 N21          4.1290    -1.7050    -0.6730 n8         1 9J4      -0.999200
     25 C25         -6.3290    -1.6390    -0.2910 ca         1 9J4      -0.116000
     26 C26         -6.3880    -0.2460    -0.1350 ca         1 9J4      -0.108000
     27 C28          3.7550    -4.0250    -0.1880 c3         1 9J4      -0.114100
     28 H1           2.9510    -3.0020     2.2890 hc         1 9J4       0.046700
     29 H2           4.4390    -2.1430     1.9610 hc         1 9J4       0.046700
     30 H3           0.4950    -0.9790     1.2170 h1         1 9J4       0.064700
     31 H4           2.2540    -0.7230     2.7650 hc         1 9J4       0.055700
     32 H5           3.3250    -0.0470     1.5580 hc         1 9J4       0.055700
     33 H6           1.5110    -3.2590    -2.1140 hc         1 9J4       0.039700
     34 H7           0.2620    -2.0650    -1.7690 hc         1 9J4       0.039700
     35 H8           1.8860    -1.5420    -2.2020 hc         1 9J4       0.039700
     36 H9           0.9460    -3.5770     1.5720 hc         1 9J4       0.039700
     37 H10         -0.2600    -3.1950     0.3580 hc         1 9J4       0.039700
     38 H11          0.9620    -4.4150     0.0160 hc         1 9J4       0.039700
     39 H12         -2.9480    -2.0450    -0.3900 ha         1 9J4       0.109500
     40 H13         -5.0330    -3.3570    -0.5020 ha         1 9J4       0.109500
     41 H14         -5.2780     1.5850     0.0500 ha         1 9J4       0.109500
     42 H15          0.8750     4.7030     0.1200 h4         1 9J4       0.022100
     43 H16         -1.0820    -0.8610    -0.3390 ha         1 9J4       0.202000
     44 H17         -3.3790     2.8170     0.1660 h4         1 9J4       0.233000
     45 H18          2.6640     0.4410    -0.3340 hn         1 9J4       0.559000
     46 H19          2.6810     4.8270     0.0590 hn         1 9J4       0.307000
     47 H20          4.3260     4.2650    -0.1420 hn         1 9J4       0.307000
     48 H21          4.8390    -2.2760    -1.1410 hn         1 9J4       0.399500
     49 H22          3.5680    -1.3380    -1.4460 hn         1 9J4       0.399500
     50 H24         -7.2460    -2.2220    -0.3400 ha         1 9J4       0.111000
     51 H25         -7.3530     0.2520    -0.0640 ha         1 9J4       0.109500
     52 H26          3.5630    -4.2970    -1.2320 hc         1 9J4       0.039367
     53 H27          4.8320    -4.1310    -0.0080 hc         1 9J4       0.039367
     54 H28          3.2580    -4.7690     0.4460 hc         1 9J4       0.039367
     55 C11          2.9170     2.8000    -0.1640 c          1 9J4       0.645700
@<TRIPOS>BOND
     1     1     2 1   
     2     1     5 1   
     3     1    28 1   
     4     1    29 1   
     5     2     3 1   
     6     2    24 1   
     7     2    27 1   
     8     3     4 1   
     9     3     6 1   
    10     3     7 1   
    11     4     5 1   
    12     4    20 1   
    13     4    30 1   
    14     5    31 1   
    15     5    32 1   
    16     6    33 1   
    17     6    34 1   
    18     6    35 1   
    19     7    36 1   
    20     7    37 1   
    21     7    38 1   
    22     8     9 ar  
    23     8    23 ar  
    24     8    39 1   
    25     9    25 ar  
    26     9    40 1   
    27    10    23 ar  
    28    10    26 ar  
    29    10    41 1   
    30    11    12 1   
    31    11    16 1   
    32    11    17 2   
    33    12    13 1   
    34    12    19 1   
    35    13    14 2   
    36    14    15 1   
    37    14    42 1   
    38    15    16 2   
    39    15    55 1   
    40    16    20 1   
    41    17    18 1   
    42    17    43 1   
    43    18    19 2   
    44    18    23 1   
    45    19    44 1   
    46    20    45 1   
    47    21    46 1   
    48    21    47 1   
    49    21    55 1   
    50    22    55 2   
    51    24    48 1   
    52    24    49 1   
    53    25    26 ar  
    54    25    50 1   
    55    26    51 1   
    56    27    52 1   
    57    27    53 1   
    58    27    54 1   
@<TRIPOS>SUBSTRUCTURE
     1 9J4         1 TEMP              0 ****  ****    0 ROOT
