@<TRIPOS>MOLECULE
9J5
   54    57     1     0     0
SMALL
No Charge or Current Charge


@<TRIPOS>ATOM
      1 CBC          0.2020    -3.8560    -3.2170 c3         1 9J5       0.150900
      2 OBA          0.8230    -2.8450    -2.4030 os         1 9J5      -0.443100
      3 CAX          1.2640    -3.2030    -1.1540 c          1 9J5       0.594100
      4 OBB          1.2010    -4.3380    -0.7000 o          1 9J5      -0.473000
      5 CAW          1.9200    -2.0230    -0.4160 c3         1 9J5      -0.129700
      6 CAY          3.4420    -2.2650    -0.2040 c3         1 9J5      -0.068400
      7 CAZ          4.2250    -2.5020    -1.5130 c3         1 9J5      -0.093100
      8 CAJ          1.1560    -1.7340     0.9130 c3         1 9J5       0.100200
      9 NAI         -0.2780    -1.4730     0.6380 n2         1 9J5      -0.575900
     10 CAK          1.7560    -0.6220     1.7560 cc         1 9J5       0.378800
     11 NAS          2.2850    -0.7450     2.9660 nd         1 9J5      -0.334000
     12 NAT          2.6330     0.5180     3.4150 nd         1 9J5      -0.356000
     13 CAU          2.3110     1.3990     2.4780 cc         1 9J5       0.410800
     14 CAV          2.4430     2.8910     2.6090 c3         1 9J5      -0.125400
     15 NAL          1.7870     0.7010     1.4200 na         1 9J5      -0.282800
     16 CAM          1.2860     1.2240     0.2300 ca         1 9J5       0.068800
     17 CAO          2.0330     2.1790    -0.4850 ca         1 9J5      -0.171000
     18 CAP          1.5590     2.7100    -1.6910 ca         1 9J5       0.176100
     19 OBD          2.3420     3.6470    -2.3350 os         1 9J5      -0.334100
     20 CBE          1.9490     4.2500    -3.5800 c3         1 9J5       0.146900
     21 CAQ          0.3240     2.2720    -2.2040 ca         1 9J5      -0.209000
     22 CAR         -0.4180     1.3030    -1.5110 ca         1 9J5      -0.022000
     23 CAN          0.0530     0.7690    -0.2930 ca         1 9J5      -0.230900
     24 CAH         -0.7630    -0.2910     0.3850 ce         1 9J5       0.552500
     25 CAE         -2.2290    -0.0310     0.5920 ca         1 9J5      -0.142900
     26 CAD         -3.1470    -1.1000     0.7230 ca         1 9J5      -0.069000
     27 CAC         -4.5110    -0.8480     0.9520 ca         1 9J5      -0.113000
     28 CAB         -4.9720     0.4710     1.0700 ca         1 9J5       0.132000
     29 ClA         -6.6790     0.7840     1.3600 cl         1 9J5      -0.198000
     30 CAG         -4.0710     1.5400     0.9670 ca         1 9J5      -0.113000
     31 CAF         -2.7070     1.2930     0.7370 ca         1 9J5      -0.069000
     32 HBC          0.8980    -4.6830    -3.4120 h1         1 9J5       0.048033
     33 HBE         -0.6910    -4.2610    -2.7230 h1         1 9J5       0.048033
     34 HBD         -0.1040    -3.4350    -4.1820 h1         1 9J5       0.048033
     35 HAY          1.8250    -1.1460    -1.0650 hc         1 9J5       0.079700
     36 HAZ          3.8870    -1.3990     0.3020 hc         1 9J5       0.061200
     37 HA0          3.5890    -3.1260     0.4610 hc         1 9J5       0.061200
     38 HA2          3.8890    -3.4170    -2.0160 hc         1 9J5       0.037367
     39 HA1          4.0940    -1.6590    -2.2010 hc         1 9J5       0.037367
     40 HA3          5.2960    -2.6070    -1.3020 hc         1 9J5       0.037367
     41 HAJ          1.2340    -2.6430     1.5260 h1         1 9J5       0.122700
     42 HAX          3.3850     3.2370     2.1700 hc         1 9J5       0.062700
     43 HAV          1.6160     3.4060     2.1080 hc         1 9J5       0.062700
     44 HAW          2.4330     3.1900     3.6630 hc         1 9J5       0.062700
     45 HAO          3.0000     2.5080    -0.1170 ha         1 9J5       0.145000
     46 HBF          1.8300     3.4890    -4.3620 h1         1 9J5       0.047700
     47 HBG          1.0020     4.7930    -3.4690 h1         1 9J5       0.047700
     48 HBH          2.7130     4.9630    -3.9150 h1         1 9J5       0.047700
     49 HAQ         -0.0710     2.6590    -3.1380 ha         1 9J5       0.128000
     50 HAR         -1.3610     0.9570    -1.9310 ha         1 9J5       0.130000
     51 HAD         -2.8110    -2.1320     0.6380 ha         1 9J5       0.129500
     52 HAC         -5.2100    -1.6760     1.0420 ha         1 9J5       0.133000
     53 HAG         -4.4290     2.5620     1.0700 ha         1 9J5       0.133000
     54 HAF         -2.0230     2.1380     0.6790 ha         1 9J5       0.129500
@<TRIPOS>BOND
     1     1     2 1   
     2     1    32 1   
     3     1    33 1   
     4     1    34 1   
     5     2     3 1   
     6     3     4 2   
     7     3     5 1   
     8     5     6 1   
     9     5     8 1   
    10     5    35 1   
    11     6     7 1   
    12     6    36 1   
    13     6    37 1   
    14     7    38 1   
    15     7    39 1   
    16     7    40 1   
    17     8     9 1   
    18     8    10 1   
    19     8    41 1   
    20     9    24 2   
    21    10    11 2   
    22    10    15 1   
    23    11    12 1   
    24    12    13 2   
    25    13    14 1   
    26    13    15 1   
    27    14    42 1   
    28    14    43 1   
    29    14    44 1   
    30    15    16 1   
    31    16    17 ar  
    32    16    23 ar  
    33    17    18 ar  
    34    17    45 1   
    35    18    19 1   
    36    18    21 ar  
    37    19    20 1   
    38    20    46 1   
    39    20    47 1   
    40    20    48 1   
    41    21    22 ar  
    42    21    49 1   
    43    22    23 ar  
    44    22    50 1   
    45    23    24 1   
    46    24    25 1   
    47    25    26 ar  
    48    25    31 ar  
    49    26    27 ar  
    50    26    51 1   
    51    27    28 ar  
    52    27    52 1   
    53    28    29 1   
    54    28    30 ar  
    55    30    31 ar  
    56    30    53 1   
    57    31    54 1   
@<TRIPOS>SUBSTRUCTURE
     1 9J5         1 TEMP              0 ****  ****    0 ROOT
