@<TRIPOS>MOLECULE
9J5
   54    57     1     0     0
SMALL
abcg2


@<TRIPOS>ATOM
      1 CBC         -0.4780    -3.1720    -2.7550 c3         1 9J5       0.150900
      2 OBA          0.4270    -2.3370    -2.0300 os         1 9J5      -0.443100
      3 CAX          1.0480    -2.8670    -0.9900 c          1 9J5       0.594100
      4 OBB          0.9060    -4.0090    -0.6310 o          1 9J5      -0.473000
      5 CAW          1.9480    -1.8690    -0.2920 c3         1 9J5      -0.129700
      6 CAY          3.3670    -2.4170    -0.1480 c3         1 9J5      -0.068400
      7 CAZ          4.0360    -2.6870    -1.4890 c3         1 9J5      -0.093100
      8 CAJ          1.3200    -1.5850     1.0930 c3         1 9J5       0.100200
      9 NAI         -0.1100    -1.3380     1.0380 n2         1 9J5      -0.575900
     10 CAK          1.9800    -0.4890     1.8500 cc         1 9J5       0.378800
     11 NAS          2.5780    -0.5890     2.9950 nd         1 9J5      -0.334000
     12 NAT          2.9270     0.6620     3.3910 nd         1 9J5      -0.356000
     13 CAU          2.5380     1.5080     2.4830 cc         1 9J5       0.410800
     14 CAV          2.6860     2.9800     2.5640 c3         1 9J5      -0.125400
     15 NAL          1.9270     0.8200     1.4680 na         1 9J5      -0.282800
     16 CAM          1.3800     1.2970     0.2620 ca         1 9J5       0.068800
     17 CAO          2.0700     2.2590    -0.4490 ca         1 9J5      -0.171000
     18 CAP          1.5630     2.7450    -1.6540 ca         1 9J5       0.176100
     19 OBD          2.3010     3.6740    -2.2670 os         1 9J5      -0.334100
     20 CBE          1.8690     4.1710    -3.5230 c3         1 9J5       0.146900
     21 CAQ          0.3630     2.2350    -2.1470 ca         1 9J5      -0.209000
     22 CAR         -0.3070     1.2670    -1.4230 ca         1 9J5      -0.022000
     23 CAN          0.1690     0.7720    -0.2110 ca         1 9J5      -0.230900
     24 CAH         -0.5870    -0.3070     0.4640 ce         1 9J5       0.552500
     25 CAE         -2.0680    -0.2020     0.4410 ca         1 9J5      -0.142900
     26 CAD         -2.8440    -1.3540     0.3200 ca         1 9J5      -0.069000
     27 CAC         -4.2260    -1.2840     0.3360 ca         1 9J5      -0.113000
     28 CAB         -4.8370    -0.0480     0.4940 ca         1 9J5       0.132000
     29 CLA         -6.5650     0.0470     0.5240 cl         1 9J5      -0.198000
     30 CAG         -4.0890     1.1110     0.6250 ca         1 9J5      -0.113000
     31 CAF         -2.7060     1.0270     0.5890 ca         1 9J5      -0.069000
     32 HBC          0.0280    -4.0470    -3.1630 h1         1 9J5       0.048033
     33 HBE         -1.3070    -3.4990    -2.1270 h1         1 9J5       0.048033
     34 HBD         -0.8600    -2.5630    -3.5690 h1         1 9J5       0.048033
     35 HAY          1.9810    -0.9580    -0.8920 hc         1 9J5       0.079700
     36 HAZ          3.9630    -1.6880     0.4070 hc         1 9J5       0.061200
     37 HA0          3.3500    -3.3260     0.4580 hc         1 9J5       0.061200
     38 HA2          3.5410    -3.4890    -2.0400 hc         1 9J5       0.037367
     39 HA1          4.0290    -1.7970    -2.1190 hc         1 9J5       0.037367
     40 HA3          5.0740    -2.9860    -1.3470 hc         1 9J5       0.037367
     41 HAJ          1.4600    -2.4850     1.6950 h1         1 9J5       0.122700
     42 HAX          3.5000     3.3470     1.9400 hc         1 9J5       0.062700
     43 HAV          1.7740     3.4930     2.2620 hc         1 9J5       0.062700
     44 HAW          2.9110     3.2510     3.5930 hc         1 9J5       0.062700
     45 HAO          3.0250     2.6270    -0.0990 ha         1 9J5       0.145000
     46 HBF          1.7880     3.3740    -4.2660 h1         1 9J5       0.047700
     47 HBG          0.9090     4.6860    -3.4460 h1         1 9J5       0.047700
     48 HBH          2.6250     4.8810    -3.8470 h1         1 9J5       0.047700
     49 HAQ         -0.0560     2.5680    -3.0850 ha         1 9J5       0.128000
     50 HAR         -1.2290     0.8730    -1.8290 ha         1 9J5       0.130000
     51 HAD         -2.3620    -2.3150     0.2000 ha         1 9J5       0.129500
     52 HAC         -4.8190    -2.1810     0.2250 ha         1 9J5       0.133000
     53 HAG         -4.5740     2.0690     0.7560 ha         1 9J5       0.133000
     54 HAF         -2.1250     1.9340     0.6940 ha         1 9J5       0.129500
@<TRIPOS>BOND
     1     1     2 1   
     2     1    32 1   
     3     1    33 1   
     4     1    34 1   
     5     2     3 1   
     6     3     4 2   
     7     3     5 1   
     8     5     6 1   
     9     5     8 1   
    10     5    35 1   
    11     6     7 1   
    12     6    36 1   
    13     6    37 1   
    14     7    38 1   
    15     7    39 1   
    16     7    40 1   
    17     8     9 1   
    18     8    10 1   
    19     8    41 1   
    20     9    24 2   
    21    10    11 2   
    22    10    15 1   
    23    11    12 1   
    24    12    13 2   
    25    13    14 1   
    26    13    15 1   
    27    14    42 1   
    28    14    43 1   
    29    14    44 1   
    30    15    16 1   
    31    16    17 ar  
    32    16    23 ar  
    33    17    18 ar  
    34    17    45 1   
    35    18    19 1   
    36    18    21 ar  
    37    19    20 1   
    38    20    46 1   
    39    20    47 1   
    40    20    48 1   
    41    21    22 ar  
    42    21    49 1   
    43    22    23 ar  
    44    22    50 1   
    45    23    24 1   
    46    24    25 1   
    47    25    26 ar  
    48    25    31 ar  
    49    26    27 ar  
    50    26    51 1   
    51    27    28 ar  
    52    27    52 1   
    53    28    29 1   
    54    28    30 ar  
    55    30    31 ar  
    56    30    53 1   
    57    31    54 1   
@<TRIPOS>SUBSTRUCTURE
     1 9J5         1 TEMP              0 ****  ****    0 ROOT
