@<TRIPOS>MOLECULE
9J6
   25    24     1     0     0
SMALL
bcc


@<TRIPOS>ATOM
      1 OAA          4.1650    -1.5100    -0.1470 o          1 9J6      -0.848300
      2 CAC          4.2080    -0.2720    -0.0050 c          1 9J6       0.927600
      3 OAB          5.2400     0.4220     0.1200 o          1 9J6      -0.848300
      4 CAD          2.8760     0.4970     0.0120 c3         1 9J6      -0.204400
      5 CAE          1.6160    -0.3500    -0.0400 c3         1 9J6      -0.055400
      6 CAF          0.3480     0.4960    -0.0180 c3         1 9J6      -0.075400
      7 CAG         -0.9080    -0.3570    -0.0640 c3         1 9J6      -0.134400
      8 CAH         -2.1870     0.4360    -0.0330 c          1 9J6       0.638100
      9 OAI         -2.2600     1.6390    -0.0190 o          1 9J6      -0.547000
     10 OAJ         -3.2520    -0.3590    -0.0240 os         1 9J6      -0.435900
     11 CAK         -4.5480     0.2510     0.0090 c3         1 9J6       0.143400
     12 CAL         -5.5770    -0.8510     0.0260 c3         1 9J6      -0.094100
     13 H2           2.8560     1.1330     0.9050 hc         1 9J6       0.017200
     14 H3           2.8790     1.1990    -0.8310 hc         1 9J6       0.017200
     15 H4           1.6250    -0.9720    -0.9400 hc         1 9J6       0.038200
     16 H5           1.6030    -1.0470     0.8030 hc         1 9J6       0.038200
     17 H6           0.3390     1.1160     0.8840 hc         1 9J6       0.041200
     18 H7           0.3550     1.1890    -0.8640 hc         1 9J6       0.041200
     19 H8          -0.9160    -0.9780    -0.9670 hc         1 9J6       0.067700
     20 H9          -0.9240    -1.0640     0.7720 hc         1 9J6       0.067700
     21 H10         -4.6390     0.8810     0.8970 h1         1 9J6       0.041700
     22 H11         -4.6780     0.8930    -0.8650 h1         1 9J6       0.041700
     23 H12         -6.5730    -0.4110     0.0540 hc         1 9J6       0.040700
     24 H13         -5.5130    -1.4750    -0.8650 hc         1 9J6       0.040700
     25 H14         -5.4710    -1.4870     0.9040 hc         1 9J6       0.040700
@<TRIPOS>BOND
     1     1     2 1   
     2     2     3 1   
     3     2     4 1   
     4     4     5 1   
     5     4    13 1   
     6     4    14 1   
     7     5     6 1   
     8     5    15 1   
     9     5    16 1   
    10     6     7 1   
    11     6    17 1   
    12     6    18 1   
    13     7     8 1   
    14     7    19 1   
    15     7    20 1   
    16     8     9 2   
    17     8    10 1   
    18    10    11 1   
    19    11    12 1   
    20    11    21 1   
    21    11    22 1   
    22    12    23 1   
    23    12    24 1   
    24    12    25 1   
@<TRIPOS>SUBSTRUCTURE
     1 9J6         1 TEMP              0 ****  ****    0 ROOT
