@<TRIPOS>MOLECULE
9J6
   25    24     1     0     0
SMALL
No Charge or Current Charge


@<TRIPOS>ATOM
      1 OAA          4.1370    -1.4230    -1.2360 o          1 9J6      -0.743000
      2 CAC          3.9320    -0.3920    -0.6140 c          1 9J6       0.717000
      3 OAB          4.7350     0.0970     0.1670 o          1 9J6      -0.743000
      4 CAD          2.5650     0.2970    -0.7770 c3         1 9J6      -0.204400
      5 CAE          1.5570    -0.2620     0.2570 c3         1 9J6      -0.055400
      6 CAF          0.1580     0.3850     0.1520 c3         1 9J6      -0.075400
      7 CAG         -0.8470    -0.1730     1.1870 c3         1 9J6      -0.134400
      8 CAH         -2.2210     0.4880     1.0430 c          1 9J6       0.589100
      9 OAI         -2.5190     1.5550     1.5630 o          1 9J6      -0.498000
     10 OAJ         -3.0560    -0.2420     0.2370 os         1 9J6      -0.459100
     11 CAK         -4.3780     0.2680    -0.0040 c3         1 9J6       0.166600
     12 CAL         -5.0960    -0.7280    -0.9280 c3         1 9J6      -0.094100
     13 H2           2.6490     1.3700    -0.5660 hc         1 9J6       0.017200
     14 H3           2.1380     0.0730    -1.7630 hc         1 9J6       0.017200
     15 H4           1.4630    -1.3460     0.1190 hc         1 9J6       0.038200
     16 H5           1.9530    -0.1020     1.2680 hc         1 9J6       0.038200
     17 H6           0.2510     1.4700     0.2900 hc         1 9J6       0.041200
     18 H7          -0.2400     0.2250    -0.8580 hc         1 9J6       0.041200
     19 H8          -0.9470    -1.2490     1.0030 hc         1 9J6       0.067700
     20 H9          -0.4630     0.0130     2.1970 hc         1 9J6       0.067700
     21 H10         -4.9380     0.3650     0.9360 h1         1 9J6       0.041700
     22 H11         -4.3360     1.2530    -0.4890 h1         1 9J6       0.041700
     23 H12         -6.1130    -0.3800    -1.1420 hc         1 9J6       0.040700
     24 H13         -4.5600    -0.8280    -1.8790 hc         1 9J6       0.040700
     25 H14         -5.1620    -1.7150    -0.4560 hc         1 9J6       0.040700
@<TRIPOS>BOND
     1     1     2 1   
     2     2     3 1   
     3     2     4 1   
     4     4     5 1   
     5     4    13 1   
     6     4    14 1   
     7     5     6 1   
     8     5    15 1   
     9     5    16 1   
    10     6     7 1   
    11     6    17 1   
    12     6    18 1   
    13     7     8 1   
    14     7    19 1   
    15     7    20 1   
    16     8     9 2   
    17     8    10 1   
    18    10    11 1   
    19    11    12 1   
    20    11    21 1   
    21    11    22 1   
    22    12    23 1   
    23    12    24 1   
    24    12    25 1   
@<TRIPOS>SUBSTRUCTURE
     1 9J6         1 TEMP              0 ****  ****    0 ROOT
