@<TRIPOS>MOLECULE
9J7
   50    52     1     0     0
SMALL
bcc


@<TRIPOS>ATOM
      1 C1           3.0410    -0.2510     0.4530 ca         1 9J7      -0.100300
      2 C2           4.3260     0.2500     0.5800 ca         1 9J7       0.119900
      3 C3           2.8980    -1.6270     0.2940 ca         1 9J7      -0.091000
      4 C4           1.8550     0.6540     0.4600 c3         1 9J7      -0.164300
      5 C5           5.4250    -0.5890     0.5640 ca         1 9J7       0.093900
      6 C6           5.2960    -1.9590     0.4110 ca         1 9J7      -0.076300
      7 C7           4.0030    -2.4610     0.2780 ca         1 9J7      -0.121000
      8 C8          -4.5880    -2.6430    -0.5400 c3         1 9J7      -0.096400
      9 C9          -5.3530    -1.3310    -0.6630 c3         1 9J7       0.088000
     10 C10         -1.1240     1.4900    -0.7840 ca         1 9J7       0.066600
     11 C11         -1.8340     0.7900    -1.7460 ca         1 9J7      -0.062000
     12 C12         -1.6490     1.6010     0.4970 ca         1 9J7      -0.124000
     13 C13         -2.8640     1.0250     0.8270 ca         1 9J7      -0.116300
     14 C14         -3.5830     0.3180    -0.1450 ca         1 9J7       0.092600
     15 C15         -3.4400     1.1200     2.2040 c6         1 9J7      -0.026100
     16 C16         -3.0480     0.2040    -1.4270 ca         1 9J7      -0.161000
     17 C17          6.5030    -2.8450     0.3980 c3         1 9J7      -0.046800
     18 C18         -4.9480     1.2410     2.0990 c6         1 9J7      -0.160400
     19 C19         -5.5360     0.1150     1.2890 c          1 9J7       0.713500
     20 C20         -5.1770    -3.7070    -1.4540 c3         1 9J7      -0.089100
     21 F1           6.6410    -0.0470     0.6990 f          1 9J7      -0.124900
     22 F2           4.5240     1.5610     0.7420 f          1 9J7      -0.116900
     23 N1          -4.8150    -0.2750     0.1900 n          1 9J7      -0.383000
     24 N2           0.1110     2.1040    -1.1240 nu         1 9J7      -0.684500
     25 O1           2.5420     2.0680    -1.6750 o          1 9J7      -0.585300
     26 O2          -6.5990    -0.4010     1.5800 o          1 9J7      -0.609500
     27 O3           1.1600    -0.0060    -1.9980 o          1 9J7      -0.585300
     28 S            1.4840     1.1800    -1.2260 s6         1 9J7       1.203900
     29 H1           1.9060    -2.0470     0.1930 ha         1 9J7       0.148000
     30 H2           0.9700     0.1370     0.8320 h1         1 9J7       0.101700
     31 H3           1.9980     1.5580     1.0520 h1         1 9J7       0.101700
     32 H4           3.8650    -3.5280     0.1620 ha         1 9J7       0.143000
     33 H5          -3.5320    -2.4940    -0.7830 hc         1 9J7       0.049200
     34 H6          -4.6250    -2.9770     0.5000 hc         1 9J7       0.049200
     35 H7          -5.3730    -0.9890    -1.6990 h1         1 9J7       0.064700
     36 H8          -6.3900    -1.4850    -0.3780 h1         1 9J7       0.064700
     37 H9          -1.4550     0.7110    -2.7560 ha         1 9J7       0.162000
     38 H10         -1.1030     2.1470     1.2590 ha         1 9J7       0.131000
     39 H11         -3.1780     0.2250     2.7780 hc         1 9J7       0.060200
     40 H12         -3.0220     1.9710     2.7420 hc         1 9J7       0.060200
     41 H13         -3.5710    -0.3290    -2.2080 ha         1 9J7       0.149000
     42 H14          7.0860    -2.7450     1.3140 hc         1 9J7       0.053033
     43 H15          6.2060    -3.8870     0.3030 hc         1 9J7       0.053033
     44 H16          7.1650    -2.6090    -0.4360 hc         1 9J7       0.053033
     45 H17         -5.4210     1.2380     3.0800 hc         1 9J7       0.079200
     46 H18         -5.2140     2.1850     1.6110 hc         1 9J7       0.079200
     47 H19         -6.2290    -3.8890    -1.2240 hc         1 9J7       0.036367
     48 H20         -5.1140    -3.4080    -2.5020 hc         1 9J7       0.036367
     49 H21         -4.6460    -4.6530    -1.3490 hc         1 9J7       0.036367
     50 H22          0.2890     3.0030    -0.6880 hn         1 9J7       0.436800
@<TRIPOS>BOND
     1     1     2 ar  
     2     1     3 ar  
     3     1     4 1   
     4     2     5 ar  
     5     2    22 1   
     6     3     7 ar  
     7     3    29 1   
     8     4    28 1   
     9     4    30 1   
    10     4    31 1   
    11     5     6 ar  
    12     5    21 1   
    13     6     7 ar  
    14     6    17 1   
    15     7    32 1   
    16     8     9 1   
    17     8    20 1   
    18     8    33 1   
    19     8    34 1   
    20     9    23 1   
    21     9    35 1   
    22     9    36 1   
    23    10    11 ar  
    24    10    12 ar  
    25    10    24 1   
    26    11    16 ar  
    27    11    37 1   
    28    12    13 ar  
    29    12    38 1   
    30    13    14 ar  
    31    13    15 1   
    32    14    16 ar  
    33    14    23 1   
    34    15    18 1   
    35    15    39 1   
    36    15    40 1   
    37    16    41 1   
    38    17    42 1   
    39    17    43 1   
    40    17    44 1   
    41    18    19 1   
    42    18    45 1   
    43    18    46 1   
    44    19    23 1   
    45    19    26 2   
    46    20    47 1   
    47    20    48 1   
    48    20    49 1   
    49    24    28 1   
    50    24    50 1   
    51    25    28 2   
    52    27    28 2   
@<TRIPOS>SUBSTRUCTURE
     1 9J7         1 TEMP              0 ****  ****    0 ROOT
