@<TRIPOS>MOLECULE
9J7
   50    52     1     0     0
SMALL
No Charge or Current Charge


@<TRIPOS>ATOM
      1 C1           3.2000    -0.7320     0.1930 ca         1 9J7      -0.100300
      2 C2           4.3280    -0.4850     1.0060 ca         1 9J7       0.155000
      3 C3           3.3040    -1.6670    -0.8550 ca         1 9J7      -0.073000
      4 C4           1.8740    -0.0050     0.4260 c3         1 9J7      -0.275100
      5 C5           5.5390    -1.1650     0.7700 ca         1 9J7       0.129000
      6 C6           5.6400    -2.1000    -0.2810 ca         1 9J7      -0.076300
      7 C7           4.5130    -2.3450    -1.0900 ca         1 9J7      -0.103000
      8 C8          -4.6720    -2.6480     0.2890 c3         1 9J7      -0.096400
      9 C9          -5.2440    -1.5480    -0.6310 c3         1 9J7       0.088000
     10 C10         -1.0500     1.5320    -0.0990 ca         1 9J7       0.205000
     11 C11         -1.3630     0.4740    -0.9740 ca         1 9J7      -0.044000
     12 C12         -2.0560     2.0260     0.7450 ca         1 9J7      -0.106000
     13 C13         -3.3440     1.4560     0.7490 ca         1 9J7      -0.116300
     14 C14         -3.6370     0.3350    -0.0630 ca         1 9J7       0.000000
     15 C15         -4.4230     2.0450     1.6520 c6         1 9J7      -0.026100
     16 C16         -2.6460    -0.1020    -0.9710 ca         1 9J7      -0.143000
     17 C17          6.9480    -2.8380    -0.5420 c3         1 9J7      -0.046800
     18 C18         -5.7980     1.9510     0.9700 c6         1 9J7      -0.160400
     19 C19         -6.0780     0.5330     0.4700 c          1 9J7       0.571000
     20 C20         -4.9370    -4.0710    -0.2390 c3         1 9J7      -0.089100
     21 F1           6.6130    -0.9180     1.5580 f          1 9J7      -0.160000
     22 F2           4.2480     0.4070     2.0210 f          1 9J7      -0.152000
     23 N1          -4.9960    -0.1710    -0.1200 n          1 9J7      -0.223400
     24 N2           0.2100     2.1380    -0.0560 nu         1 9J7      -0.878100
     25 O1           2.6610     2.5120     0.0140 o          1 9J7      -0.514500
     26 O2          -7.1950     0.0460     0.6060 o          1 9J7      -0.534000
     27 O3           1.6230     1.2460    -1.9300 o          1 9J7      -0.514500
     28 S            1.6990     1.5340    -0.4950 s6         1 9J7       1.173100
     29 H1           2.4450    -1.8700    -1.4920 ha         1 9J7       0.130000
     30 H2           1.0320    -0.6360     0.1270 h1         1 9J7       0.101700
     31 H3           1.7530     0.2610     1.4820 h1         1 9J7       0.101700
     32 H4           4.5710    -3.0630    -1.9060 ha         1 9J7       0.125000
     33 H5          -3.5900    -2.5070     0.4030 hc         1 9J7       0.049200
     34 H6          -5.1150    -2.5470     1.2870 hc         1 9J7       0.049200
     35 H7          -4.8180    -1.6460    -1.6360 h1         1 9J7       0.064700
     36 H8          -6.3210    -1.7190    -0.7520 h1         1 9J7       0.064700
     37 H9          -0.6270     0.0960    -1.6750 ha         1 9J7       0.144000
     38 H10         -1.8400     2.8660     1.4000 ha         1 9J7       0.113000
     39 H11         -4.4400     1.5000     2.6060 hc         1 9J7       0.060200
     40 H12         -4.2000     3.0940     1.8940 hc         1 9J7       0.060200
     41 H13         -2.8440    -0.9000    -1.6800 ha         1 9J7       0.131000
     42 H14          7.2470    -3.4260     0.3340 hc         1 9J7       0.053033
     43 H15          6.8660    -3.5270    -1.3900 hc         1 9J7       0.053033
     44 H16          7.7580    -2.1340    -0.7650 hc         1 9J7       0.053033
     45 H17         -6.6220     2.3160     1.5960 hc         1 9J7       0.079200
     46 H18         -5.7310     2.5800     0.0730 hc         1 9J7       0.079200
     47 H19         -6.0140    -4.2570    -0.3290 hc         1 9J7       0.036367
     48 H20         -4.4770    -4.2110    -1.2250 hc         1 9J7       0.036367
     49 H21         -4.5160    -4.8170     0.4450 hc         1 9J7       0.036367
     50 H22          0.3900     2.8240     0.6660 hn         1 9J7       0.492000
@<TRIPOS>BOND
     1     1     2 ar  
     2     1     3 ar  
     3     1     4 1   
     4     2     5 ar  
     5     2    22 1   
     6     3     7 ar  
     7     3    29 1   
     8     4    28 1   
     9     4    30 1   
    10     4    31 1   
    11     5     6 ar  
    12     5    21 1   
    13     6     7 ar  
    14     6    17 1   
    15     7    32 1   
    16     8     9 1   
    17     8    20 1   
    18     8    33 1   
    19     8    34 1   
    20     9    23 1   
    21     9    35 1   
    22     9    36 1   
    23    10    11 ar  
    24    10    12 ar  
    25    10    24 1   
    26    11    16 ar  
    27    11    37 1   
    28    12    13 ar  
    29    12    38 1   
    30    13    14 ar  
    31    13    15 1   
    32    14    16 ar  
    33    14    23 1   
    34    15    18 1   
    35    15    39 1   
    36    15    40 1   
    37    16    41 1   
    38    17    42 1   
    39    17    43 1   
    40    17    44 1   
    41    18    19 1   
    42    18    45 1   
    43    18    46 1   
    44    19    23 1   
    45    19    26 2   
    46    20    47 1   
    47    20    48 1   
    48    20    49 1   
    49    24    28 1   
    50    24    50 1   
    51    25    28 2   
    52    27    28 2   
@<TRIPOS>SUBSTRUCTURE
     1 9J7         1 TEMP              0 ****  ****    0 ROOT
