@<TRIPOS>MOLECULE
9J8
   59    62     1     0     0
SMALL
No Charge or Current Charge


@<TRIPOS>ATOM
      1 CBG          0.7850     4.3630    -0.7560 c3         1 9J8      -0.112100
      2 CBF         -0.6690     4.2950    -1.2560 c3         1 9J8       0.105000
      3 NBE         -1.3200     3.0500    -0.8510 ns         1 9J8      -0.508900
      4 CAZ         -1.8200     2.7960     0.4080 c          1 9J8       0.601100
      5 OBD         -1.8580     3.6530     1.2820 o          1 9J8      -0.594100
      6 CAS         -2.3180     1.3580     0.6280 c3         1 9J8      -0.147700
      7 CBA         -3.8320     1.3330     0.9660 c3         1 9J8      -0.037200
      8 CBB         -4.6760     1.9420    -0.1360 c2         1 9J8      -0.219200
      9 CBC         -5.3730     1.2450    -1.0460 c2         1 9J8      -0.318000
     10 CAJ         -1.4420     0.6460     1.7030 c3         1 9J8       0.101200
     11 NAI         -0.0020     0.7730     1.3750 n2         1 9J8      -0.552900
     12 CAK         -1.7990    -0.8070     1.9520 cc         1 9J8       0.373800
     13 NAO         -2.2680    -1.3250     3.0790 nd         1 9J8      -0.333000
     14 NAP         -2.3680    -2.6960     2.9140 nd         1 9J8      -0.355000
     15 CAQ         -1.9560    -3.0030     1.6920 cc         1 9J8       0.403800
     16 CAR         -1.8280    -4.3980     1.1460 c3         1 9J8      -0.124400
     17 NAL         -1.6120    -1.8300     1.0670 na         1 9J8      -0.272800
     18 CAM         -1.1540    -1.6680    -0.2430 ca         1 9J8      -0.017200
     19 CAT         -1.8110    -2.3310    -1.3000 ca         1 9J8      -0.078000
     20 CAU         -1.3890    -2.1650    -2.6280 ca         1 9J8      -0.178000
     21 CAV         -0.3070    -1.3110    -2.9180 ca         1 9J8       0.142100
     22 OAX          0.1480    -1.0960    -4.2030 os         1 9J8      -0.334100
     23 CAY         -0.4440    -1.7410    -5.3450 c3         1 9J8       0.145900
     24 CAW          0.3330    -0.6310    -1.8730 ca         1 9J8      -0.126000
     25 CAN         -0.0710    -0.7970    -0.5280 ca         1 9J8      -0.146900
     26 CAH          0.6330     0.0040     0.5350 ce         1 9J8       0.531500
     27 CAA          2.1330     0.0780     0.4770 ca         1 9J8      -0.144900
     28 CAB          2.8250     1.2090     0.9730 ca         1 9J8      -0.067500
     29 CAC          4.2300     1.2560     0.9460 ca         1 9J8      -0.113000
     30 CAD          4.9600     0.1700     0.4400 ca         1 9J8       0.133000
     31 ClA          6.7170     0.2300     0.4080 cl         1 9J8      -0.198000
     32 CAE          4.2890    -0.9670    -0.0320 ca         1 9J8      -0.113000
     33 CAF          2.8840    -1.0180    -0.0070 ca         1 9J8      -0.067500
     34 HBI          1.2570     5.2950    -1.0880 hc         1 9J8       0.042367
     35 HBJ          0.8220     4.3300     0.3390 hc         1 9J8       0.042367
     36 HBH          1.3680     3.5210    -1.1480 hc         1 9J8       0.042367
     37 HBG         -1.2390     5.1470    -0.8610 h1         1 9J8       0.051700
     38 HBF         -0.6820     4.3570    -2.3520 h1         1 9J8       0.051700
     39 HBK         -1.3430     2.2820    -1.5110 hn         1 9J8       0.313500
     40 HAU         -2.2020     0.8210    -0.3190 hc         1 9J8       0.058700
     41 HBB         -4.1470     0.2950     1.1310 hc         1 9J8       0.068200
     42 HBA         -4.0120     1.8590     1.9120 hc         1 9J8       0.068200
     43 HBC         -4.6990     3.0360    -0.1410 ha         1 9J8       0.175000
     44 HBE         -5.3720     0.1540    -1.0600 ha         1 9J8       0.161500
     45 HBD         -5.9700     1.7430    -1.8120 ha         1 9J8       0.161500
     46 HAJ         -1.6250     1.1670     2.6540 h1         1 9J8       0.126700
     47 HAS         -2.7380    -4.6900     0.6110 hc         1 9J8       0.060700
     48 HAT         -0.9790    -4.4770     0.4580 hc         1 9J8       0.060700
     49 HAR         -1.6680    -5.1180     1.9560 hc         1 9J8       0.060700
     50 HAV         -2.6680    -2.9690    -1.1000 ha         1 9J8       0.131000
     51 HAW         -1.9190    -2.6940    -3.4140 ha         1 9J8       0.129000
     52 HA0         -0.3660    -2.8320    -5.2620 h1         1 9J8       0.047367
     53 HAZ         -1.5030    -1.4690    -5.4420 h1         1 9J8       0.047367
     54 HAY          0.0700    -1.4330    -6.2640 h1         1 9J8       0.047367
     55 HAX          1.1510     0.0440    -2.1180 ha         1 9J8       0.145000
     56 HAB          2.2780     2.0620     1.3720 ha         1 9J8       0.132000
     57 HAC          4.7520     2.1330     1.3180 ha         1 9J8       0.133500
     58 HAE          4.8570    -1.8130    -0.4120 ha         1 9J8       0.133500
     59 HAF          2.3830    -1.9170    -0.3610 ha         1 9J8       0.132000
@<TRIPOS>BOND
     1     1     2 1   
     2     1    34 1   
     3     1    35 1   
     4     1    36 1   
     5     2     3 1   
     6     2    37 1   
     7     2    38 1   
     8     3     4 1   
     9     3    39 1   
    10     4     5 2   
    11     4     6 1   
    12     6     7 1   
    13     6    10 1   
    14     6    40 1   
    15     7     8 1   
    16     7    41 1   
    17     7    42 1   
    18     8     9 2   
    19     8    43 1   
    20     9    44 1   
    21     9    45 1   
    22    10    11 1   
    23    10    12 1   
    24    10    46 1   
    25    11    26 2   
    26    12    13 2   
    27    12    17 1   
    28    13    14 1   
    29    14    15 2   
    30    15    16 1   
    31    15    17 1   
    32    16    47 1   
    33    16    48 1   
    34    16    49 1   
    35    17    18 1   
    36    18    19 ar  
    37    18    25 ar  
    38    19    20 ar  
    39    19    50 1   
    40    20    21 ar  
    41    20    51 1   
    42    21    22 1   
    43    21    24 ar  
    44    22    23 1   
    45    23    52 1   
    46    23    53 1   
    47    23    54 1   
    48    24    25 ar  
    49    24    55 1   
    50    25    26 1   
    51    26    27 1   
    52    27    28 ar  
    53    27    33 ar  
    54    28    29 ar  
    55    28    56 1   
    56    29    30 ar  
    57    29    57 1   
    58    30    31 1   
    59    30    32 ar  
    60    32    33 ar  
    61    32    58 1   
    62    33    59 1   
@<TRIPOS>SUBSTRUCTURE
     1 9J8         1 TEMP              0 ****  ****    0 ROOT
