@<TRIPOS>MOLECULE
9J8
   59    62     1     0     0
SMALL
bcc


@<TRIPOS>ATOM
      1 CBG          0.5700     3.6070    -2.3200 c3         1 9J8      -0.112100
      2 CBF         -0.2300     3.8590    -1.0570 c3         1 9J8       0.105000
      3 NBE         -1.0120     2.6860    -0.7110 ns         1 9J8      -0.575900
      4 CAZ         -1.6220     2.5360     0.4700 c          1 9J8       0.668100
      5 OBD         -1.6140     3.3970     1.3400 o          1 9J8      -0.594100
      6 CAS         -2.3170     1.2000     0.6910 c3         1 9J8      -0.147700
      7 CBA         -3.7770     1.4020     1.1110 c3         1 9J8      -0.037200
      8 CBB         -4.5830     2.0820     0.0490 c2         1 9J8      -0.169200
      9 CBC         -5.5700     1.5090    -0.6290 c2         1 9J8      -0.218000
     10 CAJ         -1.5450     0.4520     1.8050 c3         1 9J8       0.101200
     11 NAI         -0.1010     0.5340     1.6800 n2         1 9J8      -0.552900
     12 CAK         -1.9350    -0.9750     1.9590 cc         1 9J8       0.373800
     13 NAO         -2.4560    -1.5340     3.0070 nd         1 9J8      -0.333000
     14 NAP         -2.5310    -2.8680     2.7700 nd         1 9J8      -0.355000
     15 CAQ         -2.0500    -3.1050     1.5830 cc         1 9J8       0.403800
     16 CAR         -1.9070    -4.4440     0.9640 c3         1 9J8      -0.124400
     17 NAL         -1.6590    -1.9230     1.0190 na         1 9J8      -0.272800
     18 CAM         -1.1300    -1.6690    -0.2620 ca         1 9J8      -0.017200
     19 CAT         -1.6800    -2.2860    -1.3740 ca         1 9J8      -0.096000
     20 CAU         -1.2070    -2.0210    -2.6480 ca         1 9J8      -0.196000
     21 CAV         -0.1740    -1.1040    -2.8250 ca         1 9J8       0.142100
     22 OAX          0.3440    -0.7590    -4.0090 os         1 9J8      -0.310900
     23 CAY         -0.1950    -1.3450    -5.1820 c3         1 9J8       0.122700
     24 CAW          0.3750    -0.4810    -1.7060 ca         1 9J8      -0.144000
     25 CAN         -0.0860    -0.7500    -0.4240 ca         1 9J8      -0.146900
     26 CAH          0.5190     0.0030     0.7070 ce         1 9J8       0.531500
     27 CAA          1.9900     0.1940     0.6720 ca         1 9J8      -0.144900
     28 CAB          2.5450     1.3850     1.1350 ca         1 9J8      -0.085500
     29 CAC          3.9160     1.5750     1.1360 ca         1 9J8      -0.131000
     30 CAD          4.7390     0.5530     0.6850 ca         1 9J8       0.041400
     31 CLA          6.4550     0.7810     0.6870 cl         1 9J8      -0.106400
     32 CAE          4.2130    -0.6450     0.2290 ca         1 9J8      -0.131000
     33 CAF          2.8370    -0.8140     0.2160 ca         1 9J8      -0.085500
     34 HBI          1.1600     4.4890    -2.5670 hc         1 9J8       0.042367
     35 HBJ          1.2580     2.7710    -2.1950 hc         1 9J8       0.042367
     36 HBH         -0.0800     3.3940    -3.1700 hc         1 9J8       0.042367
     37 HBG          0.4420     4.0940    -0.2300 h1         1 9J8       0.051700
     38 HBF         -0.8860     4.7230    -1.1900 h1         1 9J8       0.051700
     39 HBK         -1.0890     1.9520    -1.3970 hn         1 9J8       0.313500
     40 HAU         -2.3130     0.6180    -0.2330 hc         1 9J8       0.058700
     41 HBB         -4.2180     0.4300     1.3460 hc         1 9J8       0.068200
     42 HBA         -3.7980     1.9940     2.0310 hc         1 9J8       0.068200
     43 HBC         -4.3240     3.1140    -0.1700 ha         1 9J8       0.125000
     44 HBE         -5.8690     0.4830    -0.4460 ha         1 9J8       0.111500
     45 HBD         -6.1190     2.0460    -1.3920 ha         1 9J8       0.111500
     46 HAJ         -1.8080     0.9370     2.7470 h1         1 9J8       0.126700
     47 HAS         -2.6820    -4.6400     0.2240 hc         1 9J8       0.060700
     48 HAT         -0.9390    -4.5550     0.4750 hc         1 9J8       0.060700
     49 HAR         -1.9910    -5.2000     1.7410 hc         1 9J8       0.060700
     50 HAV         -2.5100    -2.9690    -1.2630 ha         1 9J8       0.149000
     51 HAW         -1.6710    -2.5250    -3.4850 ha         1 9J8       0.147000
     52 HA0         -0.0770    -2.4310    -5.1830 h1         1 9J8       0.047367
     53 HAZ         -1.2520    -1.0990    -5.3070 h1         1 9J8       0.047367
     54 HAY          0.3640    -0.9300    -6.0160 h1         1 9J8       0.047367
     55 HAX          1.1780     0.2310    -1.8500 ha         1 9J8       0.163000
     56 HAB          1.8990     2.1770     1.4890 ha         1 9J8       0.150000
     57 HAC          4.3370     2.5080     1.4840 ha         1 9J8       0.151500
     58 HAE          4.8620    -1.4390    -0.1140 ha         1 9J8       0.151500
     59 HAF          2.4320    -1.7520    -0.1420 ha         1 9J8       0.150000
@<TRIPOS>BOND
     1     1     2 1   
     2     1    34 1   
     3     1    35 1   
     4     1    36 1   
     5     2     3 1   
     6     2    37 1   
     7     2    38 1   
     8     3     4 1   
     9     3    39 1   
    10     4     5 2   
    11     4     6 1   
    12     6     7 1   
    13     6    10 1   
    14     6    40 1   
    15     7     8 1   
    16     7    41 1   
    17     7    42 1   
    18     8     9 2   
    19     8    43 1   
    20     9    44 1   
    21     9    45 1   
    22    10    11 1   
    23    10    12 1   
    24    10    46 1   
    25    11    26 2   
    26    12    13 2   
    27    12    17 1   
    28    13    14 1   
    29    14    15 2   
    30    15    16 1   
    31    15    17 1   
    32    16    47 1   
    33    16    48 1   
    34    16    49 1   
    35    17    18 1   
    36    18    19 ar  
    37    18    25 ar  
    38    19    20 ar  
    39    19    50 1   
    40    20    21 ar  
    41    20    51 1   
    42    21    22 1   
    43    21    24 ar  
    44    22    23 1   
    45    23    52 1   
    46    23    53 1   
    47    23    54 1   
    48    24    25 ar  
    49    24    55 1   
    50    25    26 1   
    51    26    27 1   
    52    27    28 ar  
    53    27    33 ar  
    54    28    29 ar  
    55    28    56 1   
    56    29    30 ar  
    57    29    57 1   
    58    30    31 1   
    59    30    32 ar  
    60    32    33 ar  
    61    32    58 1   
    62    33    59 1   
@<TRIPOS>SUBSTRUCTURE
     1 9J8         1 TEMP              0 ****  ****    0 ROOT
