@<TRIPOS>MOLECULE
9J9
   26    26     1     0     0
SMALL
No Charge or Current Charge


@<TRIPOS>ATOM
      1 O1         -12.3350     7.8650    15.1890 o          1 9J9      -0.526100
      2 C6         -11.4450     7.0340    15.0670 c          1 9J9       0.574300
      3 C1         -10.2740     7.2260    14.0730 c6         1 9J9      -0.124500
      4 C          -10.7170     6.7000    12.6810 c3         1 9J9      -0.070100
      5 C5         -11.3930     5.8090    15.9100 ce         1 9J9      -0.292200
      6 C4         -10.2790     5.0310    16.0420 cf         1 9J9      -0.038200
      7 C7         -10.3120     3.7790    16.9320 c3         1 9J9      -0.039500
      8 C9          -9.5040     3.9320    18.2430 c3         1 9J9      -0.087600
      9 C8          -9.9780     2.4710    16.1750 c3         1 9J9      -0.087600
     10 C3          -9.0440     5.4490    15.3550 cf         1 9J9       0.095100
     11 O           -7.8830     4.8340    15.6170 oh         1 9J9      -0.549100
     12 C2          -9.0080     6.4760    14.4830 c2         1 9J9      -0.232200
     13 H1         -10.0920     8.3030    13.9600 hc         1 9J9       0.084700
     14 H2         -11.6140     7.2220    12.3260 hc         1 9J9       0.044367
     15 H3          -9.9300     6.8490    11.9310 hc         1 9J9       0.044367
     16 H4         -10.9460     5.6270    12.7140 hc         1 9J9       0.044367
     17 H5         -12.3000     5.5790    16.4640 ha         1 9J9       0.199000
     18 H6         -11.3500     3.6450    17.2630 hc         1 9J9       0.057700
     19 H7          -9.7010     3.0870    18.9140 hc         1 9J9       0.039867
     20 H8          -8.4240     3.9690    18.0630 hc         1 9J9       0.039867
     21 H9          -9.7950     4.8510    18.7660 hc         1 9J9       0.039867
     22 H10        -10.1880     1.6000    16.8070 hc         1 9J9       0.039867
     23 H11        -10.5940     2.3860    15.2710 hc         1 9J9       0.039867
     24 H12         -8.9260     2.4220    15.8770 hc         1 9J9       0.039867
     25 H13         -8.0780     4.1340    16.2720 ho         1 9J9       0.467000
     26 H14         -8.0680     6.7690    14.0120 ha         1 9J9       0.197000
@<TRIPOS>BOND
     1     1     2 2   
     2     2     3 1   
     3     2     5 1   
     4     3     4 1   
     5     3    12 1   
     6     3    13 1   
     7     4    14 1   
     8     4    15 1   
     9     4    16 1   
    10     5     6 2   
    11     5    17 1   
    12     6     7 1   
    13     6    10 1   
    14     7     8 1   
    15     7     9 1   
    16     7    18 1   
    17     8    19 1   
    18     8    20 1   
    19     8    21 1   
    20     9    22 1   
    21     9    23 1   
    22     9    24 1   
    23    10    11 1   
    24    10    12 2   
    25    11    25 1   
    26    12    26 1   
@<TRIPOS>SUBSTRUCTURE
     1 9J9         1 TEMP              0 ****  ****    0 ROOT
