@<TRIPOS>MOLECULE
9J9
   26    26     1     0     0
SMALL
bcc


@<TRIPOS>ATOM
      1 O1         -12.7160     6.9920    14.4660 o          1 9J9      -0.526100
      2 C6         -11.6180     6.5490    14.7600 c          1 9J9       0.574300
      3 C1         -10.3570     7.0660    14.1030 c6         1 9J9      -0.124500
      4 C          -10.5510     7.3290    12.6080 c3         1 9J9      -0.070100
      5 C5         -11.4630     5.5280    15.7860 ce         1 9J9      -0.242200
      6 C4         -10.3000     4.8920    16.0390 cf         1 9J9      -0.038200
      7 C7         -10.2790     3.8320    17.1180 c3         1 9J9      -0.039500
      8 C9          -9.2800     4.1250    18.2410 c3         1 9J9      -0.087600
      9 C8         -10.1330     2.4130    16.5570 c3         1 9J9      -0.087600
     10 C3          -9.1060     5.2440    15.2580 cf         1 9J9       0.095100
     11 O           -7.9240     4.6110    15.4710 oh         1 9J9      -0.510100
     12 C2          -9.1460     6.2390    14.3640 c2         1 9J9      -0.182200
     13 H1         -10.1820     8.0430    14.5860 hc         1 9J9       0.084700
     14 H2         -11.3740     8.0180    12.4330 hc         1 9J9       0.044367
     15 H3          -9.6490     7.7690    12.1840 hc         1 9J9       0.044367
     16 H4         -10.7560     6.4010    12.0750 hc         1 9J9       0.044367
     17 H5         -12.3560     5.2540    16.3370 ha         1 9J9       0.149000
     18 H6         -11.2710     3.8690    17.5750 hc         1 9J9       0.057700
     19 H7          -9.4600     3.4400    19.0700 hc         1 9J9       0.039867
     20 H8          -8.2410     4.0030    17.9390 hc         1 9J9       0.039867
     21 H9          -9.4020     5.1410    18.6190 hc         1 9J9       0.039867
     22 H10        -10.3050     1.6900    17.3550 hc         1 9J9       0.039867
     23 H11        -10.8650     2.2250    15.7720 hc         1 9J9       0.039867
     24 H12         -9.1460     2.1910    16.1480 hc         1 9J9       0.039867
     25 H13         -8.0510     3.6930    15.7290 ho         1 9J9       0.428000
     26 H14         -8.2470     6.4920    13.8130 ha         1 9J9       0.147000
@<TRIPOS>BOND
     1     1     2 2   
     2     2     3 1   
     3     2     5 1   
     4     3     4 1   
     5     3    12 1   
     6     3    13 1   
     7     4    14 1   
     8     4    15 1   
     9     4    16 1   
    10     5     6 2   
    11     5    17 1   
    12     6     7 1   
    13     6    10 1   
    14     7     8 1   
    15     7     9 1   
    16     7    18 1   
    17     8    19 1   
    18     8    20 1   
    19     8    21 1   
    20     9    22 1   
    21     9    23 1   
    22     9    24 1   
    23    10    11 1   
    24    10    12 2   
    25    11    25 1   
    26    12    26 1   
@<TRIPOS>SUBSTRUCTURE
     1 9J9         1 TEMP              0 ****  ****    0 ROOT
