@<TRIPOS>MOLECULE
9JB
   51    50     1     0     0
SMALL
abcg2


@<TRIPOS>ATOM
      1 CAA          6.0770    -0.5730     0.7650 c3         1 9JB      -0.127100
      2 CAB         -1.3750     3.9250     0.5310 c3         1 9JB      -0.127100
      3 CAC          1.2520    -0.7570     0.8300 c3         1 9JB       0.167267
      4 OAD          2.4250    -0.8240     0.0640 os         1 9JB      -0.447000
      5 CAE          3.5880    -0.7430     0.8420 c3         1 9JB       0.145267
      6 CAF          4.8140    -0.7860    -0.0560 c3         1 9JB       0.169300
      7 OAG          4.8710    -1.9760    -0.8170 oh         1 9JB      -0.705667
      8 OAH          1.0400     4.1470     0.3060 oh         1 9JB      -0.705667
      9 CAI         -0.1710     3.9590    -0.4010 c3         1 9JB       0.169300
     10 CAJ         -0.0380     2.6940    -1.2240 c3         1 9JB       0.145267
     11 OAK          0.0600     1.5780    -0.3830 os         1 9JB      -0.447000
     12 CAL          0.0420     0.3610    -1.0770 c3         1 9JB       0.167267
     13 CAM          0.0260    -0.8040    -0.0850 c3         1 9JB      -0.034000
     14 CAN          0.0050    -2.0910    -0.9140 c3         1 9JB       0.168600
     15 OAO         -0.0200    -3.2090    -0.0580 oh         1 9JB      -0.667000
     16 OAS         -4.8760    -1.7340    -0.8260 oh         1 9JB      -0.705667
     17 CAT         -4.7530    -0.5400    -0.0810 c3         1 9JB       0.169300
     18 CAU         -3.5310    -0.5560     0.8230 c3         1 9JB       0.145267
     19 OAV         -2.3730    -0.7310     0.0560 os         1 9JB      -0.447000
     20 CAW         -1.2010    -0.7130     0.8260 c3         1 9JB       0.167267
     21 CAY         -6.0040    -0.2450     0.7330 c3         1 9JB      -0.127100
     22 HAAA         6.1840    -1.3430     1.5330 hc         1 9JB       0.042367
     23 HAA          6.9620    -0.6040     0.1300 hc         1 9JB       0.042367
     24 HAAB         6.0610     0.3950     1.2680 hc         1 9JB       0.042367
     25 HABA        -2.2990     3.8120    -0.0370 hc         1 9JB       0.042367
     26 HAB         -1.3090     3.0990     1.2390 hc         1 9JB       0.042367
     27 HACA         1.2120    -1.5900     1.5460 h1         1 9JB       0.034033
     28 HAC          1.2320     0.1680     1.4240 h1         1 9JB       0.034033
     29 HAE          3.6060     0.1880     1.4270 h1         1 9JB       0.024033
     30 HAEA         3.6360    -1.5710     1.5690 h1         1 9JB       0.024033
     31 HAF          4.7280     0.0220    -0.7890 h1         1 9JB       0.064033
     32 HOAG         4.9960    -2.7140    -0.2110 ho         1 9JB       0.495667
     33 HOAH         0.9660     4.9620     0.8120 ho         1 9JB       0.495667
     34 HAI         -0.3220     4.7710    -1.1270 h1         1 9JB       0.064033
     35 HAJ         -0.9180     2.6190    -1.8790 h1         1 9JB       0.024033
     36 HAJA         0.8400     2.7700    -1.8820 h1         1 9JB       0.024033
     37 HAL         -0.8450     0.3000    -1.7230 h1         1 9JB       0.034033
     38 HALA         0.9180     0.2760    -1.7360 h1         1 9JB       0.034033
     39 HANA        -0.8740    -2.0750    -1.5700 h1         1 9JB       0.035700
     40 HAN          0.8880    -2.1090    -1.5640 h1         1 9JB       0.035700
     41 HA4         -0.0180    -4.0010    -0.6020 ho         1 9JB       0.445000
     42 HOAS        -5.0350    -2.4580    -0.2100 ho         1 9JB       0.495667
     43 HAT         -4.6180     0.2530    -0.8230 h1         1 9JB       0.064033
     44 HAU         -3.4920     0.3890     1.3850 h1         1 9JB       0.024033
     45 HAUA        -3.6360    -1.3600     1.5700 h1         1 9JB       0.024033
     46 HAW         -1.1970    -1.5470     1.5420 h1         1 9JB       0.034033
     47 HAWA        -1.1470     0.2090     1.4220 h1         1 9JB       0.034033
     48 HAYB        -6.1550    -0.9970     1.5120 hc         1 9JB       0.042367
     49 HAY         -5.9380     0.7280     1.2220 hc         1 9JB       0.042367
     50 HAYA        -6.8880    -0.2370     0.0960 hc         1 9JB       0.042367
     51 HABB        -1.4520     4.8570     1.0940 hc         1 9JB       0.042367
@<TRIPOS>BOND
     1     1     6 1   
     2     1    22 1   
     3     1    23 1   
     4     1    24 1   
     5     2     9 1   
     6     2    25 1   
     7     2    26 1   
     8     2    51 1   
     9     3     4 1   
    10     3    13 1   
    11     3    27 1   
    12     3    28 1   
    13     4     5 1   
    14     5     6 1   
    15     5    29 1   
    16     5    30 1   
    17     6     7 1   
    18     6    31 1   
    19     7    32 1   
    20     8     9 1   
    21     8    33 1   
    22     9    10 1   
    23     9    34 1   
    24    10    11 1   
    25    10    35 1   
    26    10    36 1   
    27    11    12 1   
    28    12    13 1   
    29    12    37 1   
    30    12    38 1   
    31    13    14 1   
    32    13    20 1   
    33    14    15 1   
    34    14    39 1   
    35    14    40 1   
    36    15    41 1   
    37    16    17 1   
    38    16    42 1   
    39    17    18 1   
    40    17    21 1   
    41    17    43 1   
    42    18    19 1   
    43    18    44 1   
    44    18    45 1   
    45    19    20 1   
    46    20    46 1   
    47    20    47 1   
    48    21    48 1   
    49    21    49 1   
    50    21    50 1   
@<TRIPOS>SUBSTRUCTURE
     1 9JB         1 TEMP              0 ****  ****    0 ROOT
