@<TRIPOS>MOLECULE
9JB
   51    50     1     0     0
SMALL
No Charge or Current Charge


@<TRIPOS>ATOM
      1 CAA          6.2320    -0.9720     0.5980 c3         1 9JB      -0.127100
      2 CAB         -1.3070     4.1630     0.4930 c3         1 9JB      -0.127100
      3 CAC          1.2730    -0.6600     0.9840 c3         1 9JB       0.167267
      4 OAD          2.4600    -0.7910     0.1770 os         1 9JB      -0.447000
      5 CAE          3.6940    -0.6390     0.9080 c3         1 9JB       0.145267
      6 CAF          4.8680    -0.7900    -0.0950 c3         1 9JB       0.169300
      7 OAG          4.6160    -1.9140    -0.9470 oh         1 9JB      -0.705667
      8 OAH          1.1150     4.2820     0.3350 oh         1 9JB      -0.705667
      9 CAI         -0.0810     4.0860    -0.4420 c3         1 9JB       0.169300
     10 CAJ         -0.0120     2.7550    -1.2520 c3         1 9JB       0.145267
     11 OAK          0.0090     1.6300    -0.3510 os         1 9JB      -0.447000
     12 CAL          0.0220     0.3430    -0.9970 c3         1 9JB       0.167267
     13 CAM          0.0090    -0.7810     0.0820 c3         1 9JB      -0.034000
     14 CAN         -0.0090    -2.1610    -0.6460 c3         1 9JB       0.168600
     15 OAO         -0.0190    -3.2590     0.2840 oh         1 9JB      -0.667000
     16 OAS         -4.6380    -1.7290    -0.9670 oh         1 9JB      -0.705667
     17 CAT         -4.8460    -0.6040    -0.1040 c3         1 9JB       0.169300
     18 CAU         -3.6690    -0.5110     0.9030 c3         1 9JB       0.145267
     19 OAV         -2.4410    -0.7080     0.1740 os         1 9JB      -0.447000
     20 CAW         -1.2520    -0.6300     0.9850 c3         1 9JB       0.167267
     21 CAY         -6.2180    -0.7350     0.5830 c3         1 9JB      -0.127100
     22 HAAA         6.2420    -1.8800     1.2130 hc         1 9JB       0.042367
     23 HAA          7.0350    -1.0480    -0.1450 hc         1 9JB       0.042367
     24 HAAB         6.4490    -0.1150     1.2470 hc         1 9JB       0.042367
     25 HABA        -2.2310     4.0090    -0.0760 hc         1 9JB       0.042367
     26 HAB         -1.2560     3.3960     1.2760 hc         1 9JB       0.042367
     27 HACA         1.2510    -1.4380     1.7580 h1         1 9JB       0.034033
     28 HAC          1.2660     0.3110     1.4960 h1         1 9JB       0.034033
     29 HAE          3.7470     0.3480     1.3880 h1         1 9JB       0.024033
     30 HAEA         3.7730    -1.4070     1.6890 h1         1 9JB       0.024033
     31 HAF          4.9090     0.1290    -0.6970 h1         1 9JB       0.064033
     32 HOAG         3.6310    -1.9610    -0.9860 ho         1 9JB       0.495667
     33 HOAH         0.9890     5.1100     0.8530 ho         1 9JB       0.495667
     34 HAI         -0.1760     4.8990    -1.1770 h1         1 9JB       0.064033
     35 HAJ         -0.8880     2.6970    -1.9110 h1         1 9JB       0.024033
     36 HAJA         0.8850     2.7610    -1.8850 h1         1 9JB       0.024033
     37 HAL         -0.8550     0.2370    -1.6500 h1         1 9JB       0.034033
     38 HALA         0.9150     0.2420    -1.6280 h1         1 9JB       0.034033
     39 HANA        -0.8920    -2.2140    -1.2960 h1         1 9JB       0.035700
     40 HAN          0.8700    -2.2350    -1.3010 h1         1 9JB       0.035700
     41 HA4         -0.0300    -4.0850    -0.2480 ho         1 9JB       0.445000
     42 HOAS        -3.6550    -1.8150    -1.0040 ho         1 9JB       0.495667
     43 HAT         -4.8460     0.3230    -0.6970 h1         1 9JB       0.064033
     44 HAU         -3.6830     0.4720     1.3930 h1         1 9JB       0.024033
     45 HAUA        -3.7830    -1.2830     1.6760 h1         1 9JB       0.024033
     46 HAW         -1.2590    -1.4190     1.7480 h1         1 9JB       0.034033
     47 HAWA        -1.2130     0.3330     1.5110 h1         1 9JB       0.034033
     48 HAYB        -6.2680    -1.6480     1.1880 hc         1 9JB       0.042367
     49 HAY         -6.4020     0.1240     1.2390 hc         1 9JB       0.042367
     50 HAYA        -7.0210    -0.7710    -0.1630 hc         1 9JB       0.042367
     51 HABB        -1.3680     5.1450     0.9770 hc         1 9JB       0.042367
@<TRIPOS>BOND
     1     1     6 1   
     2     1    22 1   
     3     1    23 1   
     4     1    24 1   
     5     2     9 1   
     6     2    25 1   
     7     2    26 1   
     8     2    51 1   
     9     3     4 1   
    10     3    13 1   
    11     3    27 1   
    12     3    28 1   
    13     4     5 1   
    14     5     6 1   
    15     5    29 1   
    16     5    30 1   
    17     6     7 1   
    18     6    31 1   
    19     7    32 1   
    20     8     9 1   
    21     8    33 1   
    22     9    10 1   
    23     9    34 1   
    24    10    11 1   
    25    10    35 1   
    26    10    36 1   
    27    11    12 1   
    28    12    13 1   
    29    12    37 1   
    30    12    38 1   
    31    13    14 1   
    32    13    20 1   
    33    14    15 1   
    34    14    39 1   
    35    14    40 1   
    36    15    41 1   
    37    16    17 1   
    38    16    42 1   
    39    17    18 1   
    40    17    21 1   
    41    17    43 1   
    42    18    19 1   
    43    18    44 1   
    44    18    45 1   
    45    19    20 1   
    46    20    46 1   
    47    20    47 1   
    48    21    48 1   
    49    21    49 1   
    50    21    50 1   
@<TRIPOS>SUBSTRUCTURE
     1 9JB         1 TEMP              0 ****  ****    0 ROOT
