@<TRIPOS>MOLECULE
9JC
   26    27     1     0     0
SMALL
bcc


@<TRIPOS>ATOM
      1 C92         -4.8780    19.5650    27.3410 c          1 9JC       0.482400
      2 C93         -5.9440    14.6690    27.7520 c3         1 9JC       0.195100
      3 C94         -6.0330    16.0960    28.2210 ca         1 9JC      -0.060300
      4 C95         -5.4140    17.1140    27.5510 ca         1 9JC      -0.173300
      5 C96         -5.5310    18.4330    28.0320 ca         1 9JC       0.306800
      6 C97         -7.4380    15.4480    30.1770 ca         1 9JC      -0.193000
      7 C98         -6.7760    16.4150    29.3970 ca         1 9JC      -0.074300
      8 C99         -6.8290    17.7800    29.7880 ca         1 9JC       0.331600
      9 N4          -6.2090    18.7550    29.1050 nb         1 9JC      -0.647000
     10 N5          -5.1910    14.5250    26.5240 n8         1 9JC      -0.889800
     11 O17         -4.2200    19.4590    26.3340 o          1 9JC      -0.509100
     12 C100        -7.5570    18.1710    30.9620 ca         1 9JC       0.156300
     13 C101        -8.1850    17.1830    31.7010 ca         1 9JC      -0.244000
     14 C102        -8.1190    15.8440    31.3040 ca         1 9JC      -0.052000
     15 H1          -5.0470    20.5390    27.8330 h4         1 9JC       0.007200
     16 H2          -6.9630    14.2640    27.6940 h1         1 9JC       0.042200
     17 H3          -5.4430    14.0880    28.5330 h1         1 9JC       0.042200
     18 H4          -4.8340    16.9130    26.6620 ha         1 9JC       0.174000
     19 H5          -7.4110    14.4030    29.9040 ha         1 9JC       0.134000
     20 H6          -7.9030    19.7330    32.2180 hn         1 9JC       0.423300
     21 H7          -6.9710    20.1070    30.8460 hn         1 9JC       0.423300
     22 H8          -4.9800    13.5470    26.3790 hn         1 9JC       0.345300
     23 H9          -5.7590    14.8070    25.7360 hn         1 9JC       0.345300
     24 H11         -8.7340    17.4510    32.5950 ha         1 9JC       0.134000
     25 H12         -8.6230    15.1000    31.9080 ha         1 9JC       0.128000
     26 N27         -7.6370    19.4890    31.2790 nv         1 9JC      -0.830200
@<TRIPOS>BOND
     1     1     5 1   
     2     1    11 2   
     3     1    15 1   
     4     2     3 1   
     5     2    10 1   
     6     2    16 1   
     7     2    17 1   
     8     3     4 ar  
     9     3     7 ar  
    10     4     5 ar  
    11     4    18 1   
    12     5     9 ar  
    13     6     7 ar  
    14     6    14 ar  
    15     6    19 1   
    16     7     8 ar  
    17     8     9 ar  
    18     8    12 ar  
    19    10    22 1   
    20    10    23 1   
    21    12    13 ar  
    22    12    26 1   
    23    13    14 ar  
    24    13    24 1   
    25    14    25 1   
    26    20    26 1   
    27    21    26 1   
@<TRIPOS>SUBSTRUCTURE
     1 9JC         1 TEMP              0 ****  ****    0 ROOT
