@<TRIPOS>MOLECULE
9JC
   26    27     1     0     0
SMALL
No Charge or Current Charge


@<TRIPOS>ATOM
      1 C92         -4.7510    19.5910    27.2400 c          1 9JC       0.482400
      2 C93         -5.8420    14.6410    27.8070 c3         1 9JC       0.195100
      3 C94         -5.9750    16.1030    28.2700 ca         1 9JC      -0.060300
      4 C95         -5.3220    17.1420    27.5730 ca         1 9JC      -0.090000
      5 C96         -5.4520    18.4760    27.9990 ca         1 9JC       0.241500
      6 C97         -7.3880    15.4690    30.1970 ca         1 9JC      -0.175000
      7 C98         -6.7350    16.4560    29.4180 ca         1 9JC      -0.009000
      8 C99         -6.8330    17.8280    29.7960 ca         1 9JC       0.201000
      9 N4          -6.1970    18.8070    29.0860 nb         1 9JC      -0.647000
     10 N5          -5.3390    14.4750    26.4250 n8         1 9JC      -1.000200
     11 O17         -4.0490    19.4210    26.2440 o          1 9JC      -0.509100
     12 C100        -7.6110    18.1630    30.9520 ca         1 9JC       0.360000
     13 C101        -8.2500    17.1670    31.6990 ca         1 9JC      -0.226000
     14 C102        -8.1380    15.8230    31.3260 ca         1 9JC      -0.034000
     15 H1          -4.9080    20.6150    27.6470 h4         1 9JC       0.007200
     16 H2          -6.8250    14.1530    27.8530 h1         1 9JC       0.042200
     17 H3          -5.1660    14.1110    28.4910 h1         1 9JC       0.042200
     18 H4          -4.7080    16.9280    26.7030 ha         1 9JC       0.156000
     19 H5          -7.3210    14.4140    29.9490 ha         1 9JC       0.116000
     20 H6          -8.0640    19.6520    32.3300 hn         1 9JC       0.478500
     21 H7          -7.1640    20.1720    30.9360 hn         1 9JC       0.478500
     22 H8          -5.3310    13.4740    26.1930 hn         1 9JC       0.400500
     23 H9          -6.0300    14.8660    25.7740 hn         1 9JC       0.400500
     24 H11         -8.8360    17.4310    32.5750 ha         1 9JC       0.116000
     25 H12         -8.6340    15.0520    31.9140 ha         1 9JC       0.110000
     26 N27         -7.7560    19.4700    31.3780 nv         1 9JC      -1.079000
@<TRIPOS>BOND
     1     1     5 1   
     2     1    11 2   
     3     1    15 1   
     4     2     3 1   
     5     2    10 1   
     6     2    16 1   
     7     2    17 1   
     8     3     4 ar  
     9     3     7 ar  
    10     4     5 ar  
    11     4    18 1   
    12     5     9 ar  
    13     6     7 ar  
    14     6    14 ar  
    15     6    19 1   
    16     7     8 ar  
    17     8     9 ar  
    18     8    12 ar  
    19    10    22 1   
    20    10    23 1   
    21    12    13 ar  
    22    12    26 1   
    23    13    14 ar  
    24    13    24 1   
    25    14    25 1   
    26    20    26 1   
    27    21    26 1   
@<TRIPOS>SUBSTRUCTURE
     1 9JC         1 TEMP              0 ****  ****    0 ROOT
