@<TRIPOS>MOLECULE
9JD
   78    80     1     0     0
SMALL
abcg2


@<TRIPOS>ATOM
      1 C10          1.1490    -1.8350     2.9500 ca         1 9JD       0.171000
      2 C12          1.5530    -1.0730     4.0230 ca         1 9JD      -0.152000
      3 C13          1.6330     0.2960     3.8360 ca         1 9JD      -0.089000
      4 C14          1.3050     0.8480     2.6100 ca         1 9JD      -0.138000
      5 C15          0.8790     0.0710     1.5290 ca         1 9JD      -0.029300
      6 C16          0.5000     0.8040     0.2440 c3         1 9JD       0.242300
      7 C18          1.5650     1.8530    -0.1320 c3         1 9JD      -0.098400
      8 C19          2.9570     1.2670    -0.3340 c3         1 9JD      -0.095400
      9 N21          5.2600     1.7560    -0.9490 ns         1 9JD      -0.501900
     10 O23          6.1710     3.5230    -2.0420 o          1 9JD      -0.544000
     11 O24          7.4180     1.7450    -1.4380 os         1 9JD      -0.461100
     12 C01          2.7320    -5.7810    -1.4780 c3         1 9JD      -0.087100
     13 C03          1.1530    -3.8620    -1.0820 ca         1 9JD      -0.080300
     14 C04         -0.1470    -4.3650    -1.1420 ca         1 9JD      -0.102000
     15 C05         -1.1290    -3.8770    -0.2950 ca         1 9JD      -0.104000
     16 C06         -0.8310    -2.8760     0.6210 ca         1 9JD      -0.092000
     17 C07          0.4500    -2.3440     0.6760 cp         1 9JD      -0.018000
     18 C08          1.4330    -2.8570    -0.1650 ca         1 9JD      -0.075000
     19 C09          0.8100    -1.3220     1.6990 cp         1 9JD      -0.044000
     20 F11          1.0870    -3.1680     3.1170 f          1 9JD      -0.173000
     21 O17          0.4390    -0.1470    -0.7910 oh         1 9JD      -0.640000
     22 C20          3.9370     2.3260    -0.8110 c3         1 9JD       0.119000
     23 C22          6.2720     2.4330    -1.5150 c          1 9JD       0.634100
     24 C25          8.5690     2.3500    -2.0140 c3         1 9JD       0.171900
     25 C26         -0.8990     1.4780     0.3620 c6         1 9JD      -0.106700
     26 C28         -1.0360     2.6340     1.3530 c6         1 9JD      -0.070400
     27 C29         -2.4460     3.2170     1.3000 c6         1 9JD      -0.097400
     28 C30         -3.4960     2.1390     1.5220 c6         1 9JD       0.103000
     29 N31         -3.3090     1.0550     0.5750 n          1 9JD      -0.420800
     30 C32         -1.9930     0.4450     0.6480 c6         1 9JD       0.095000
     31 C33         -4.2210     0.6220    -0.3250 c          1 9JD       0.612100
     32 O34         -3.9890    -0.3110    -1.0820 o          1 9JD      -0.584100
     33 C35         -5.5700     1.3200    -0.3330 c3         1 9JD      -0.192400
     34 C36         -6.4790     0.8710    -1.4720 c3         1 9JD       0.182300
     35 O38         -5.9820     1.2820    -2.7250 oh         1 9JD      -0.622000
     36 C39         -7.9010     1.3600    -1.2160 c3         1 9JD       0.110800
     37 N40         -8.8090     0.9490    -2.2730 n8         1 9JD      -0.983200
     38 H1           1.8070    -1.5370     4.9660 ha         1 9JD       0.134000
     39 H2           1.9580     0.9340     4.6460 ha         1 9JD       0.118000
     40 H3           1.3980     1.9190     2.4990 ha         1 9JD       0.115000
     41 H4           1.2320     2.3330    -1.0600 hc         1 9JD       0.046200
     42 H5           1.6170     2.6530     0.6070 hc         1 9JD       0.046200
     43 H6           3.3160     0.8400     0.6080 hc         1 9JD       0.058200
     44 H7           2.9200     0.4500    -1.0580 hc         1 9JD       0.058200
     45 H8           5.4670     0.9020    -0.4540 hn         1 9JD       0.327500
     46 H9           3.5220    -6.1630    -2.1260 hc         1 9JD       0.033700
     47 H10          3.1340    -5.7110    -0.4660 hc         1 9JD       0.033700
     48 H11          1.9270    -6.5170    -1.4670 hc         1 9JD       0.033700
     49 H12          3.0690    -3.7220    -2.0130 hc         1 9JD       0.044200
     50 H13          1.8560    -4.5240    -2.9880 hc         1 9JD       0.044200
     51 H14         -0.3860    -5.1470    -1.8540 ha         1 9JD       0.110000
     52 H15         -2.1340    -4.2770    -0.3450 ha         1 9JD       0.114000
     53 H16         -1.6010    -2.5030     1.2840 ha         1 9JD       0.111000
     54 H17          2.4390    -2.4540    -0.1110 ha         1 9JD       0.108000
     55 H18          0.1310     0.3000    -1.5870 ho         1 9JD       0.450000
     56 H19          3.6110     2.7240    -1.7740 h1         1 9JD       0.048700
     57 H20          3.9500     3.1650    -0.1060 h1         1 9JD       0.048700
     58 H21          8.8180     3.2930    -1.5270 h1         1 9JD       0.047033
     59 H22          9.3830     1.6470    -1.8590 h1         1 9JD       0.047033
     60 H23          8.4460     2.5220    -3.0830 h1         1 9JD       0.047033
     61 H24         -1.1010     1.8930    -0.6370 hc         1 9JD       0.053700
     62 H25         -0.8400     2.2830     2.3700 hc         1 9JD       0.045700
     63 H26         -0.3140     3.4250     1.1460 hc         1 9JD       0.045700
     64 H27         -2.5610     3.9920     2.0600 hc         1 9JD       0.049200
     65 H28         -2.6180     3.6890     0.3280 hc         1 9JD       0.049200
     66 H29         -3.3990     1.7330     2.5360 h1         1 9JD       0.045700
     67 H30         -4.4950     2.5560     1.4480 h1         1 9JD       0.045700
     68 H31         -1.9500    -0.3830    -0.0510 h1         1 9JD       0.072700
     69 H32         -1.8580     0.0360     1.6570 h1         1 9JD       0.072700
     70 H33         -6.0610     1.1310     0.6280 hc         1 9JD       0.057700
     71 H34         -5.4420     2.4050    -0.3920 hc         1 9JD       0.057700
     72 H35         -6.4950    -0.2230    -1.5040 h1         1 9JD       0.091700
     73 H36         -6.1480     2.2260    -2.8200 ho         1 9JD       0.433000
     74 H37         -8.2010     1.0130    -0.2170 h1         1 9JD       0.026700
     75 H38         -7.9020     2.4550    -1.1690 h1         1 9JD       0.026700
     76 H39         -8.9300    -0.0560    -2.2390 hn         1 9JD       0.395500
     77 H40         -9.7250     1.3380    -2.0910 hn         1 9JD       0.395500
     78 C02          2.2330    -4.4230    -1.9670 c3         1 9JD      -0.030100
@<TRIPOS>BOND
     1     1     2 ar  
     2     1    19 ar  
     3     1    20 1   
     4     2     3 ar  
     5     2    38 1   
     6     3     4 ar  
     7     3    39 1   
     8     4     5 ar  
     9     4    40 1   
    10     5     6 1   
    11     5    19 ar  
    12     6     7 1   
    13     6    21 1   
    14     6    25 1   
    15     7     8 1   
    16     7    41 1   
    17     7    42 1   
    18     8    22 1   
    19     8    43 1   
    20     8    44 1   
    21     9    22 1   
    22     9    23 1   
    23     9    45 1   
    24    10    23 2   
    25    11    23 1   
    26    11    24 1   
    27    12    46 1   
    28    12    47 1   
    29    12    48 1   
    30    12    78 1   
    31    13    14 ar  
    32    13    18 ar  
    33    13    78 1   
    34    14    15 ar  
    35    14    51 1   
    36    15    16 ar  
    37    15    52 1   
    38    16    17 ar  
    39    16    53 1   
    40    17    18 ar  
    41    17    19 1   
    42    18    54 1   
    43    21    55 1   
    44    22    56 1   
    45    22    57 1   
    46    24    58 1   
    47    24    59 1   
    48    24    60 1   
    49    25    26 1   
    50    25    30 1   
    51    25    61 1   
    52    26    27 1   
    53    26    62 1   
    54    26    63 1   
    55    27    28 1   
    56    27    64 1   
    57    27    65 1   
    58    28    29 1   
    59    28    66 1   
    60    28    67 1   
    61    29    30 1   
    62    29    31 1   
    63    30    68 1   
    64    30    69 1   
    65    31    32 2   
    66    31    33 1   
    67    33    34 1   
    68    33    70 1   
    69    33    71 1   
    70    34    35 1   
    71    34    36 1   
    72    34    72 1   
    73    35    73 1   
    74    36    37 1   
    75    36    74 1   
    76    36    75 1   
    77    37    76 1   
    78    37    77 1   
    79    49    78 1   
    80    50    78 1   
@<TRIPOS>SUBSTRUCTURE
     1 9JD         1 TEMP              0 ****  ****    0 ROOT
