@<TRIPOS>MOLECULE
9JD
   78    80     1     0     0
SMALL
No Charge or Current Charge


@<TRIPOS>ATOM
      1 C10          1.3810    -1.8280     3.0450 ca         1 9JD       0.171000
      2 C12          1.8960    -0.9710     4.0210 ca         1 9JD      -0.152000
      3 C13          1.9870     0.3960     3.7580 ca         1 9JD      -0.089000
      4 C14          1.5650     0.8990     2.5200 ca         1 9JD      -0.138000
      5 C15          1.0410     0.0620     1.4960 ca         1 9JD      -0.029300
      6 C16          0.5840     0.7530     0.1590 c3         1 9JD       0.242300
      7 C18          1.6250     1.8210    -0.3310 c3         1 9JD      -0.098400
      8 C19          3.0770     1.2980    -0.5160 c3         1 9JD      -0.095400
      9 N21          5.4060     1.8820    -1.1510 ns         1 9JD      -0.501900
     10 O23          6.5100     3.8840    -1.3490 o          1 9JD      -0.544000
     11 O24          7.6060     1.8610    -1.4280 os         1 9JD      -0.461100
     12 C01          2.6390    -5.6160    -1.5300 c3         1 9JD      -0.087100
     13 C03          0.7830    -3.9550    -1.0220 ca         1 9JD      -0.080300
     14 C04         -0.5370    -4.4240    -0.8810 ca         1 9JD      -0.102000
     15 C05         -1.3720    -3.8970     0.1180 ca         1 9JD      -0.104000
     16 C06         -0.8940    -2.8920     0.9750 ca         1 9JD      -0.092000
     17 C07          0.4180    -2.3830     0.8350 cp         1 9JD      -0.018000
     18 C08          1.2530    -2.9480    -0.1580 ca         1 9JD      -0.075000
     19 C09          0.9460    -1.3520     1.7800 cp         1 9JD      -0.044000
     20 F11          1.3080    -3.1480     3.3350 f          1 9JD      -0.173000
     21 O17          0.5470    -0.1800    -0.9220 oh         1 9JD      -0.640000
     22 C20          4.0480     2.3950    -0.9910 c3         1 9JD       0.119000
     23 C22          6.5120     2.6640    -1.3120 c          1 9JD       0.634100
     24 C25          8.8860     2.4960    -1.6080 c3         1 9JD       0.171900
     25 C26         -0.8690     1.3660     0.2850 c6         1 9JD      -0.106700
     26 C28         -1.0160     2.5440     1.3030 c6         1 9JD      -0.070400
     27 C29         -2.4680     3.0850     1.3330 c6         1 9JD      -0.097400
     28 C30         -3.4700     1.9450     1.6140 c6         1 9JD       0.103000
     29 N31         -3.3090     0.8650     0.6060 n          1 9JD      -0.420800
     30 C32         -1.9400     0.2820     0.6070 c6         1 9JD       0.095000
     31 C33         -4.2700     0.5330    -0.3820 c          1 9JD       0.612100
     32 O34         -4.0260    -0.3320    -1.2150 o          1 9JD      -0.584100
     33 C35         -5.6370     1.2400    -0.3580 c3         1 9JD      -0.192400
     34 C36         -6.5980     0.8820    -1.5100 c3         1 9JD       0.182300
     35 O38         -6.2110     1.5550    -2.7060 oh         1 9JD      -0.622000
     36 C39         -8.0660     1.3090    -1.2350 c3         1 9JD       0.110800
     37 N40         -8.8680     1.3620    -2.4880 n8         1 9JD      -0.983200
     38 H1           2.2210    -1.3690     4.9790 ha         1 9JD       0.134000
     39 H2           2.3810     1.0720     4.5140 ha         1 9JD       0.118000
     40 H3           1.6430     1.9710     2.3750 ha         1 9JD       0.115000
     41 H4           1.2840     2.2350    -1.2890 hc         1 9JD       0.046200
     42 H5           1.6560     2.6780     0.3480 hc         1 9JD       0.046200
     43 H6           3.4480     0.8880     0.4310 hc         1 9JD       0.058200
     44 H7           3.0880     0.4780    -1.2440 hc         1 9JD       0.058200
     45 H8           5.5640     0.8830    -1.1430 hn         1 9JD       0.327500
     46 H9           3.2820    -6.0150    -2.3230 hc         1 9JD       0.033700
     47 H10          3.2800    -5.2010    -0.7430 hc         1 9JD       0.033700
     48 H11          2.0610    -6.4460    -1.1040 hc         1 9JD       0.033700
     49 H12          2.3020    -3.7370    -2.5420 hc         1 9JD       0.044200
     50 H13          1.1070    -4.9670    -2.9090 hc         1 9JD       0.044200
     51 H14         -0.9140    -5.2050    -1.5390 ha         1 9JD       0.110000
     52 H15         -2.3870    -4.2720     0.2320 ha         1 9JD       0.114000
     53 H16         -1.5410    -2.5060     1.7580 ha         1 9JD       0.111000
     54 H17          2.2740    -2.5870    -0.2580 ha         1 9JD       0.108000
     55 H18          0.2970     0.3220    -1.7230 ho         1 9JD       0.450000
     56 H19          3.7080     2.8000    -1.9540 h1         1 9JD       0.048700
     57 H20          4.0620     3.2140    -0.2590 h1         1 9JD       0.048700
     58 H21          9.1220     3.1500    -0.7590 h1         1 9JD       0.047033
     59 H22          9.6780     1.7410    -1.6870 h1         1 9JD       0.047033
     60 H23          8.8980     3.0980    -2.5260 h1         1 9JD       0.047033
     61 H24         -1.1090     1.7700    -0.7090 hc         1 9JD       0.053700
     62 H25         -0.7510     2.2100     2.3140 hc         1 9JD       0.045700
     63 H26         -0.3390     3.3710     1.0530 hc         1 9JD       0.045700
     64 H27         -2.5630     3.8630     2.1020 hc         1 9JD       0.049200
     65 H28         -2.7100     3.5600     0.3720 hc         1 9JD       0.049200
     66 H29         -3.2720     1.5280     2.6120 h1         1 9JD       0.045700
     67 H30         -4.4900     2.3460     1.6400 h1         1 9JD       0.045700
     68 H31         -1.8710    -0.5400    -0.1170 h1         1 9JD       0.072700
     69 H32         -1.7390    -0.1460     1.6000 h1         1 9JD       0.072700
     70 H33         -6.0890     1.0210     0.6160 hc         1 9JD       0.057700
     71 H34         -5.4800     2.3220    -0.2900 hc         1 9JD       0.057700
     72 H35         -6.5940    -0.2080    -1.6640 h1         1 9JD       0.091700
     73 H36         -7.0910     1.7620    -3.1080 ho         1 9JD       0.433000
     74 H37         -8.5380     0.6130    -0.5280 h1         1 9JD       0.026700
     75 H38         -8.0720     2.3120    -0.7860 h1         1 9JD       0.026700
     76 H39         -9.0510     0.4040    -2.8150 hn         1 9JD       0.395500
     77 H40         -9.8100     1.7130    -2.2670 hn         1 9JD       0.395500
     78 C02          1.6980    -4.5350    -2.0920 c3         1 9JD      -0.030100
@<TRIPOS>BOND
     1     1     2 ar  
     2     1    19 ar  
     3     1    20 1   
     4     2     3 ar  
     5     2    38 1   
     6     3     4 ar  
     7     3    39 1   
     8     4     5 ar  
     9     4    40 1   
    10     5     6 1   
    11     5    19 ar  
    12     6     7 1   
    13     6    21 1   
    14     6    25 1   
    15     7     8 1   
    16     7    41 1   
    17     7    42 1   
    18     8    22 1   
    19     8    43 1   
    20     8    44 1   
    21     9    22 1   
    22     9    23 1   
    23     9    45 1   
    24    10    23 2   
    25    11    23 1   
    26    11    24 1   
    27    12    46 1   
    28    12    47 1   
    29    12    48 1   
    30    12    78 1   
    31    13    14 ar  
    32    13    18 ar  
    33    13    78 1   
    34    14    15 ar  
    35    14    51 1   
    36    15    16 ar  
    37    15    52 1   
    38    16    17 ar  
    39    16    53 1   
    40    17    18 ar  
    41    17    19 1   
    42    18    54 1   
    43    21    55 1   
    44    22    56 1   
    45    22    57 1   
    46    24    58 1   
    47    24    59 1   
    48    24    60 1   
    49    25    26 1   
    50    25    30 1   
    51    25    61 1   
    52    26    27 1   
    53    26    62 1   
    54    26    63 1   
    55    27    28 1   
    56    27    64 1   
    57    27    65 1   
    58    28    29 1   
    59    28    66 1   
    60    28    67 1   
    61    29    30 1   
    62    29    31 1   
    63    30    68 1   
    64    30    69 1   
    65    31    32 2   
    66    31    33 1   
    67    33    34 1   
    68    33    70 1   
    69    33    71 1   
    70    34    35 1   
    71    34    36 1   
    72    34    72 1   
    73    35    73 1   
    74    36    37 1   
    75    36    74 1   
    76    36    75 1   
    77    37    76 1   
    78    37    77 1   
    79    49    78 1   
    80    50    78 1   
@<TRIPOS>SUBSTRUCTURE
     1 9JD         1 TEMP              0 ****  ****    0 ROOT
