@<TRIPOS>MOLECULE
9JE
   19    18     1     0     0
SMALL
abcg2


@<TRIPOS>ATOM
      1 C02          2.5140    -0.4600     0.0360 c3         1 9JE       0.163600
      2 C03          1.2670     0.4020     0.0110 c3         1 9JE      -0.081400
      3 C04         -0.0030    -0.4400     0.0240 c3         1 9JE      -0.075400
      4 C05         -1.2720     0.4030    -0.0060 c3         1 9JE      -0.081400
      5 C06         -2.5190    -0.4590     0.0110 c3         1 9JE       0.163600
      6 O01          3.6550     0.3720     0.0230 oh         1 9JE      -0.661500
      7 O07         -3.6600     0.3730    -0.0310 oh         1 9JE      -0.661500
      8 H1           2.4940    -1.0970     0.9310 h1         1 9JE       0.014700
      9 H2           2.5020    -1.1350    -0.8300 h1         1 9JE       0.014700
     10 H3           1.2710     1.0740     0.8750 hc         1 9JE       0.054700
     11 H4           1.2790     1.0340    -0.8820 hc         1 9JE       0.054700
     12 H5           0.0020    -1.1200    -0.8350 hc         1 9JE       0.035700
     13 H6          -0.0090    -1.0760     0.9160 hc         1 9JE       0.035700
     14 H7          -1.2840     1.0800     0.8540 hc         1 9JE       0.054700
     15 H8          -1.2740     1.0300    -0.9030 hc         1 9JE       0.054700
     16 H9          -2.4940    -1.1450    -0.8460 h1         1 9JE       0.014700
     17 H10         -2.5130    -1.0830     0.9140 h1         1 9JE       0.014700
     18 H11          4.4350    -0.1890     0.0330 ho         1 9JE       0.442000
     19 H12         -4.4410    -0.1880    -0.0110 ho         1 9JE       0.442000
@<TRIPOS>BOND
     1     1     2 1   
     2     1     6 1   
     3     1     8 1   
     4     1     9 1   
     5     2     3 1   
     6     2    10 1   
     7     2    11 1   
     8     3     4 1   
     9     3    12 1   
    10     3    13 1   
    11     4     5 1   
    12     4    14 1   
    13     4    15 1   
    14     5     7 1   
    15     5    16 1   
    16     5    17 1   
    17     6    18 1   
    18     7    19 1   
@<TRIPOS>SUBSTRUCTURE
     1 9JE         1 TEMP              0 ****  ****    0 ROOT
