@<TRIPOS>MOLECULE
9JE
   19    18     1     0     0
SMALL
No Charge or Current Charge


@<TRIPOS>ATOM
      1 C02          2.5710    -0.4590     0.0370 c3         1 9JE       0.163600
      2 C03          1.2870     0.3940     0.0080 c3         1 9JE      -0.081400
      3 C04         -0.0030    -0.4570     0.0230 c3         1 9JE      -0.075400
      4 C05         -1.2920     0.3940    -0.0060 c3         1 9JE      -0.081400
      5 C06         -2.5760    -0.4580     0.0090 c3         1 9JE       0.163600
      6 O01          3.7190     0.3950     0.0210 oh         1 9JE      -0.661500
      7 O07         -3.7240     0.3960    -0.0190 oh         1 9JE      -0.661500
      8 H1           2.5730    -1.0810     0.9430 h1         1 9JE       0.014700
      9 H2           2.5830    -1.1280    -0.8340 h1         1 9JE       0.014700
     10 H3           1.2850     1.0690     0.8730 hc         1 9JE       0.054700
     11 H4           1.2950     1.0220    -0.8910 hc         1 9JE       0.054700
     12 H5           0.0020    -1.1330    -0.8410 hc         1 9JE       0.035700
     13 H6          -0.0080    -1.0870     0.9220 hc         1 9JE       0.035700
     14 H7          -1.2990     1.0700     0.8590 hc         1 9JE       0.054700
     15 H8          -1.2890     1.0230    -0.9050 hc         1 9JE       0.054700
     16 H9          -2.5790    -1.1270    -0.8620 h1         1 9JE       0.014700
     17 H10         -2.5890    -1.0800     0.9140 h1         1 9JE       0.014700
     18 H11          4.5090    -0.1900     0.0410 ho         1 9JE       0.442000
     19 H12         -4.5140    -0.1880    -0.0080 ho         1 9JE       0.442000
@<TRIPOS>BOND
     1     1     2 1   
     2     1     6 1   
     3     1     8 1   
     4     1     9 1   
     5     2     3 1   
     6     2    10 1   
     7     2    11 1   
     8     3     4 1   
     9     3    12 1   
    10     3    13 1   
    11     4     5 1   
    12     4    14 1   
    13     4    15 1   
    14     5     7 1   
    15     5    16 1   
    16     5    17 1   
    17     6    18 1   
    18     7    19 1   
@<TRIPOS>SUBSTRUCTURE
     1 9JE         1 TEMP              0 ****  ****    0 ROOT
