@<TRIPOS>MOLECULE
9JF
   42    45     1     0     0
SMALL
No Charge or Current Charge


@<TRIPOS>ATOM
      1 N            2.2510     1.5170    -1.0640 nu         1 9JF      -0.753100
      2 C            3.5370    -0.5780     1.1880 ca         1 9JF       0.241100
      3 O            3.9210     0.6740     1.5550 oh         1 9JF      -0.524100
      4 C01         -6.0770    -1.6080     0.1240 ca         1 9JF      -0.100000
      5 C02         -5.5010    -2.5330    -0.7580 ca         1 9JF      -0.093000
      6 C03         -4.1740    -2.3640    -1.1820 ca         1 9JF      -0.069000
      7 C04         -3.4050    -1.2660    -0.7290 ca         1 9JF      -0.125600
      8 C05         -3.9870    -0.3310     0.1620 ca         1 9JF      -0.129600
      9 C06         -5.3260    -0.5140     0.5810 ca         1 9JF      -0.062000
     10 C07         -1.9800    -1.1040    -1.1990 c          1 9JF       0.594300
     11 C08         -1.1950     0.0870    -0.6880 ca         1 9JF      -0.094600
     12 C09         -1.7710     1.0280     0.2060 ca         1 9JF      -0.238600
     13 C10         -3.2020     0.8540     0.6690 c          1 9JF       0.616300
     14 C11          0.1430     0.2610    -1.1140 ca         1 9JF      -0.098000
     15 C12          0.9230     1.3420    -0.6670 ca         1 9JF       0.326000
     16 C13          0.3460     2.2800     0.2190 ca         1 9JF       0.070100
     17 C14         -0.9860     2.1210     0.6480 ca         1 9JF       0.150100
     18 O02         -1.4740    -1.9140    -1.9690 o          1 9JF      -0.511100
     19 O03         -1.5020     3.0520     1.5090 oh         1 9JF      -0.564100
     20 O04          1.0660     3.3580     0.6890 oh         1 9JF      -0.537100
     21 S            3.3880     0.3400    -1.4510 sy         1 9JF       1.193600
     22 O05          2.9350    -0.2160    -2.7300 o          1 9JF      -0.533500
     23 O06          4.6610     1.0580    -1.3330 o          1 9JF      -0.533500
     24 C15          3.2550    -0.8940    -0.1540 ca         1 9JF      -0.332500
     25 C16          2.8340    -2.2000    -0.4880 ca         1 9JF       0.024000
     26 C17          2.7060    -3.1760     0.5130 ca         1 9JF      -0.165000
     27 C18          2.9940    -2.8600     1.8490 ca         1 9JF      -0.010000
     28 C19          3.4070    -1.5610     2.1820 ca         1 9JF      -0.229000
     29 H08          2.7440     2.2350    -0.5530 hn         1 9JF       0.368000
     30 H            4.0780     0.6720     2.5210 ho         1 9JF       0.484000
     31 H01         -7.1050    -1.7380     0.4540 ha         1 9JF       0.122000
     32 H02         -6.0820    -3.3820    -1.1130 ha         1 9JF       0.122000
     33 H03         -3.7450    -3.0930    -1.8670 ha         1 9JF       0.139000
     34 H04         -5.7910     0.1930     1.2660 ha         1 9JF       0.139000
     35 H05          0.5730    -0.4550    -1.8060 ha         1 9JF       0.147000
     36 H06         -2.4380     2.7760     1.6980 ho         1 9JF       0.528000
     37 H07          0.4580     3.8580     1.2820 ho         1 9JF       0.496000
     38 H09          2.6040    -2.4680    -1.5190 ha         1 9JF       0.147000
     39 H10          2.3830    -4.1810     0.2510 ha         1 9JF       0.127000
     40 H11          2.8930    -3.6180     2.6230 ha         1 9JF       0.117000
     41 H12          3.6220    -1.3240     3.2220 ha         1 9JF       0.117000
     42 O01         -3.7100     1.6630     1.4420 o          1 9JF      -0.569100
@<TRIPOS>BOND
     1     1    15 1   
     2     1    21 1   
     3     1    29 1   
     4     2     3 1   
     5     2    24 ar  
     6     2    28 ar  
     7     3    30 1   
     8     4     5 ar  
     9     4     9 ar  
    10     4    31 1   
    11     5     6 ar  
    12     5    32 1   
    13     6     7 ar  
    14     6    33 1   
    15     7     8 ar  
    16     7    10 1   
    17     8     9 ar  
    18     8    13 1   
    19     9    34 1   
    20    10    11 1   
    21    10    18 2   
    22    11    12 ar  
    23    11    14 ar  
    24    12    13 1   
    25    12    17 ar  
    26    13    42 2   
    27    14    15 ar  
    28    14    35 1   
    29    15    16 ar  
    30    16    17 ar  
    31    16    20 1   
    32    17    19 1   
    33    19    36 1   
    34    20    37 1   
    35    21    22 2   
    36    21    23 2   
    37    21    24 1   
    38    24    25 ar  
    39    25    26 ar  
    40    25    38 1   
    41    26    27 ar  
    42    26    39 1   
    43    27    28 ar  
    44    27    40 1   
    45    28    41 1   
@<TRIPOS>SUBSTRUCTURE
     1 9JF         1 TEMP              0 ****  ****    0 ROOT
