@<TRIPOS>MOLECULE
9JF
   42    45     1     0     0
SMALL
bcc


@<TRIPOS>ATOM
      1 N            2.1040     1.3880     0.1650 nu         1 9JF      -0.719500
      2 C            4.0240    -1.0340     1.1100 ca         1 9JF       0.241100
      3 O            4.3670     0.1130     1.6980 oh         1 9JF      -0.485100
      4 C01         -6.2620    -1.3510    -0.2930 ca         1 9JF      -0.118000
      5 C02         -5.5290    -2.5270    -0.3980 ca         1 9JF      -0.111000
      6 C03         -4.1450    -2.4900    -0.3540 ca         1 9JF      -0.087000
      7 C04         -3.4820    -1.2760    -0.2060 ca         1 9JF      -0.125600
      8 C05         -4.2210    -0.0930    -0.1000 ca         1 9JF      -0.129600
      9 C06         -5.6110    -0.1380    -0.1440 ca         1 9JF      -0.080000
     10 C07         -1.9990    -1.2620    -0.1670 c          1 9JF       0.594300
     11 C08         -1.3310     0.0480    -0.0220 ca         1 9JF      -0.094600
     12 C09         -2.0840     1.2290     0.0930 ca         1 9JF      -0.238600
     13 C10         -3.5420     1.2090     0.0610 c          1 9JF       0.616300
     14 C11          0.0460     0.0940     0.0110 ca         1 9JF      -0.116000
     15 C12          0.7120     1.3140     0.1330 ca         1 9JF       0.187600
     16 C13         -0.0180     2.4920     0.2530 ca         1 9JF       0.070100
     17 C14         -1.4200     2.4500     0.2460 ca         1 9JF       0.150100
     18 O02         -1.3600    -2.2910    -0.2560 o          1 9JF      -0.511100
     19 O03         -2.0380     3.6210     0.3670 oh         1 9JF      -0.525100
     20 O04          0.6490     3.6450     0.3800 oh         1 9JF      -0.498100
     21 S            3.0800     0.5720    -0.9060 sy         1 9JF       1.335200
     22 O05          2.3250     0.3170    -2.1200 o          1 9JF      -0.604300
     23 O06          4.3100     1.3360    -0.9690 o          1 9JF      -0.604300
     24 C15          3.3810    -0.9830    -0.1320 ca         1 9JF      -0.332500
     25 C16          3.0010    -2.1480    -0.7890 ca         1 9JF       0.006000
     26 C17          3.2490    -3.3800    -0.2120 ca         1 9JF      -0.183000
     27 C18          3.8820    -3.4370     1.0250 ca         1 9JF      -0.028000
     28 C19          4.2660    -2.2810     1.6820 ca         1 9JF      -0.247000
     29 H08          2.5230     2.2400     0.5160 hn         1 9JF       0.472800
     30 H            4.7890    -0.0520     2.5500 ho         1 9JF       0.445000
     31 H01         -7.3420    -1.3810    -0.3270 ha         1 9JF       0.140000
     32 H02         -6.0380    -3.4740    -0.5160 ha         1 9JF       0.140000
     33 H03         -3.5760    -3.4060    -0.4370 ha         1 9JF       0.157000
     34 H04         -6.1860     0.7750    -0.0620 ha         1 9JF       0.157000
     35 H05          0.6070    -0.8290    -0.0390 ha         1 9JF       0.165000
     36 H06         -3.0080     3.4540     0.3270 ho         1 9JF       0.489000
     37 H07          0.0420     4.3920     0.4700 ho         1 9JF       0.457000
     38 H09          2.5060    -2.0920    -1.7480 ha         1 9JF       0.165000
     39 H10          2.9540    -4.2860    -0.7210 ha         1 9JF       0.145000
     40 H11          4.0800    -4.3950     1.4870 ha         1 9JF       0.135000
     41 H12          4.7600    -2.3410     2.6450 ha         1 9JF       0.135000
     42 O01         -4.1940     2.2460     0.1670 o          1 9JF      -0.569100
@<TRIPOS>BOND
     1     1    15 1   
     2     1    21 1   
     3     1    29 1   
     4     2     3 1   
     5     2    24 ar  
     6     2    28 ar  
     7     3    30 1   
     8     4     5 ar  
     9     4     9 ar  
    10     4    31 1   
    11     5     6 ar  
    12     5    32 1   
    13     6     7 ar  
    14     6    33 1   
    15     7     8 ar  
    16     7    10 1   
    17     8     9 ar  
    18     8    13 1   
    19     9    34 1   
    20    10    11 1   
    21    10    18 2   
    22    11    12 ar  
    23    11    14 ar  
    24    12    13 1   
    25    12    17 ar  
    26    13    42 2   
    27    14    15 ar  
    28    14    35 1   
    29    15    16 ar  
    30    16    17 ar  
    31    16    20 1   
    32    17    19 1   
    33    19    36 1   
    34    20    37 1   
    35    21    22 2   
    36    21    23 2   
    37    21    24 1   
    38    24    25 ar  
    39    25    26 ar  
    40    25    38 1   
    41    26    27 ar  
    42    26    39 1   
    43    27    28 ar  
    44    27    40 1   
    45    28    41 1   
@<TRIPOS>SUBSTRUCTURE
     1 9JF         1 TEMP              0 ****  ****    0 ROOT
