@<TRIPOS>MOLECULE
9JG
   51    53     1     0     0
SMALL
bcc


@<TRIPOS>ATOM
      1 O27          1.2870     3.8820     1.3640 o          1 9JG      -0.580100
      2 C25          1.9880     3.5700     0.4180 c          1 9JG       0.795100
      3 N28          2.8300     4.4270    -0.2020 ns         1 9JG      -0.593900
      4 C29          2.9040     5.8280     0.1580 c3         1 9JG       0.114000
      5 C30          4.1500     6.4580    -0.4370 c3         1 9JG      -0.110100
      6 N22          2.0340     2.2940    -0.1210 ns         1 9JG      -0.581400
      7 C19          1.2300     1.2190     0.2240 ca         1 9JG       0.570200
      8 N17         -0.0240     1.4740     0.6300 nb         1 9JG      -0.662000
      9 C13         -0.7980     0.4640     0.9250 ca         1 9JG       0.465200
     10 C10         -0.4290    -0.8940     0.8100 ca         1 9JG      -0.179300
     11 C16          1.7220    -0.0600     0.0860 ca         1 9JG      -0.311300
     12 C12          0.8880    -1.1590     0.3520 ca         1 9JG       0.037000
     13 C15          1.3200    -2.5140     0.2270 cp         1 9JG      -0.046000
     14 C18          2.6600    -2.8610    -0.2880 cp         1 9JG       0.004000
     15 C21          3.5150    -3.6820     0.4420 ca         1 9JG      -0.238800
     16 C24          4.7470    -4.0200    -0.0960 ca         1 9JG       0.398700
     17 N26          5.1700    -3.6040    -1.2840 nb         1 9JG      -0.662000
     18 C23          4.3530    -2.8230    -1.9820 ca         1 9JG       0.398700
     19 C20          3.1030    -2.4260    -1.5350 ca         1 9JG      -0.238800
     20 C14          0.4590    -3.5160     0.5900 ca         1 9JG      -0.090000
     21 C11         -0.8470    -3.2440     1.0420 ca         1 9JG      -0.136000
     22 C8          -1.3080    -1.9610     1.1450 ca         1 9JG      -0.062300
     23 C6          -2.7260    -1.7120     1.5890 c3         1 9JG       0.156300
     24 N4          -3.5410    -1.2140     0.5030 ns         1 9JG      -0.569900
     25 C2          -4.3760    -0.1700     0.6250 c          1 9JG       0.757100
     26 O1          -4.5010     0.5290     1.6100 o          1 9JG      -0.591000
     27 O3          -5.0650     0.0200    -0.5090 os         1 9JG      -0.430900
     28 C5          -5.9860     1.1080    -0.5100 c3         1 9JG       0.247500
     29 C7          -6.6140     1.1450    -1.8230 c1         1 9JG      -0.159100
     30 C9          -7.1460     1.2040    -2.8970 c1         1 9JG      -0.116500
     31 H1           3.2190     4.1660    -1.0950 hn         1 9JG       0.304500
     32 H2           2.0150     6.3660    -0.1850 h1         1 9JG       0.053200
     33 H3           2.9290     5.9140     1.2440 h1         1 9JG       0.053200
     34 H4           4.1870     7.5180    -0.1880 hc         1 9JG       0.041700
     35 H5           5.0540     5.9870    -0.0530 hc         1 9JG       0.041700
     36 H6           4.1580     6.3760    -1.5250 hc         1 9JG       0.041700
     37 H7           2.8370     2.0660    -0.6880 hn         1 9JG       0.314500
     38 H8          -1.7880     0.7290     1.2790 h4         1 9JG       0.039100
     39 H9           2.7520    -0.2080    -0.2110 ha         1 9JG       0.145000
     40 H10          3.2360    -4.0470     1.4210 ha         1 9JG       0.146000
     41 H11          5.4230    -4.6560     0.4640 h4         1 9JG       0.020100
     42 H12          4.7050    -2.4950    -2.9530 h4         1 9JG       0.020100
     43 H13          2.4810    -1.8000    -2.1620 ha         1 9JG       0.146000
     44 H14          0.7730    -4.5480     0.4990 ha         1 9JG       0.138000
     45 H15         -1.4960    -4.0740     1.2940 ha         1 9JG       0.136000
     46 H16         -3.1430    -2.6460     1.9730 h1         1 9JG       0.067700
     47 H17         -2.7610    -0.9940     2.4070 h1         1 9JG       0.067700
     48 H18         -3.5660    -1.7560    -0.3480 hn         1 9JG       0.332500
     49 H19         -6.7490     0.9770     0.2610 h1         1 9JG       0.069700
     50 H20         -5.4760     2.0550    -0.3170 h1         1 9JG       0.069700
     51 H21         -7.6170     1.2530    -3.8520 ha         1 9JG       0.169500
@<TRIPOS>BOND
     1     1     2 2   
     2     2     3 1   
     3     2     6 1   
     4     3     4 1   
     5     3    31 1   
     6     4     5 1   
     7     4    32 1   
     8     4    33 1   
     9     5    34 1   
    10     5    35 1   
    11     5    36 1   
    12     6     7 1   
    13     6    37 1   
    14     7     8 ar  
    15     7    11 ar  
    16     8     9 ar  
    17     9    10 ar  
    18     9    38 1   
    19    10    12 ar  
    20    10    22 ar  
    21    11    12 ar  
    22    11    39 1   
    23    12    13 ar  
    24    13    14 1   
    25    13    20 ar  
    26    14    15 ar  
    27    14    19 ar  
    28    15    16 ar  
    29    15    40 1   
    30    16    17 ar  
    31    16    41 1   
    32    17    18 ar  
    33    18    19 ar  
    34    18    42 1   
    35    19    43 1   
    36    20    21 ar  
    37    20    44 1   
    38    21    22 ar  
    39    21    45 1   
    40    22    23 1   
    41    23    24 1   
    42    23    46 1   
    43    23    47 1   
    44    24    25 1   
    45    24    48 1   
    46    25    26 2   
    47    25    27 1   
    48    27    28 1   
    49    28    29 1   
    50    28    49 1   
    51    28    50 1   
    52    29    30 3   
    53    30    51 1   
@<TRIPOS>SUBSTRUCTURE
     1 9JG         1 TEMP              0 ****  ****    0 ROOT
