@<TRIPOS>MOLECULE
9JG
   51    53     1     0     0
SMALL
No Charge or Current Charge


@<TRIPOS>ATOM
      1 O27          1.5530     4.0350     1.5260 o          1 9JG      -0.580100
      2 C25          2.1920     3.6620     0.5550 c          1 9JG       0.661100
      3 N28          3.1040     4.4630    -0.0830 ns         1 9JG      -0.526900
      4 C29          3.4050     5.8390     0.3090 c3         1 9JG       0.114000
      5 C30          4.4620     6.4690    -0.6110 c3         1 9JG      -0.110100
      6 N22          2.1170     2.4170    -0.0140 ns         1 9JG      -0.347900
      7 C19          1.2960     1.3280     0.3020 ca         1 9JG       0.504900
      8 N17          0.0450     1.6280     0.6870 nb         1 9JG      -0.662000
      9 C13         -0.7900     0.6000     0.9530 ca         1 9JG       0.399900
     10 C10         -0.4240    -0.7610     0.8220 ca         1 9JG      -0.114000
     11 C16          1.7460     0.0180     0.1080 ca         1 9JG      -0.228000
     12 C12          0.8810    -1.0640     0.3660 ca         1 9JG       0.037000
     13 C15          1.2970    -2.4160     0.1980 cp         1 9JG      -0.046000
     14 C18          2.6470    -2.7970    -0.3130 cp         1 9JG       0.004000
     15 C21          3.5000    -3.6460     0.4260 ca         1 9JG      -0.155500
     16 C24          4.7550    -4.0050    -0.0930 ca         1 9JG       0.333400
     17 N26          5.2020    -3.5810    -1.2980 nb         1 9JG      -0.662000
     18 C23          4.3880    -2.7780    -2.0220 ca         1 9JG       0.333400
     19 C20          3.1200    -2.3720    -1.5750 ca         1 9JG      -0.155500
     20 C14          0.3810    -3.4400     0.5260 ca         1 9JG      -0.072000
     21 C11         -0.9100    -3.1430     0.9830 ca         1 9JG      -0.118000
     22 C8          -1.3300    -1.8090     1.1320 ca         1 9JG      -0.062300
     23 C6          -2.7500    -1.5410     1.6260 c3         1 9JG       0.156300
     24 N4          -3.6130    -1.0800     0.5410 ns         1 9JG      -0.502900
     25 C2          -4.7740    -0.3880     0.7190 c          1 9JG       0.641100
     26 O1          -5.2330    -0.0570     1.8000 o          1 9JG      -0.542000
     27 O3          -5.3200    -0.1220    -0.4960 os         1 9JG      -0.454100
     28 C5          -6.5540     0.6120    -0.5170 c3         1 9JG       0.270700
     29 C7          -6.9640     0.7880    -1.9180 c1         1 9JG      -0.159100
     30 C9          -7.3220     0.9490    -3.0630 c1         1 9JG      -0.204000
     31 H1           3.5900     4.0670    -0.8770 hn         1 9JG       0.304500
     32 H2           2.4820     6.4320     0.2670 h1         1 9JG       0.053200
     33 H3           3.7710     5.8430     1.3450 h1         1 9JG       0.053200
     34 H4           4.6720     7.4990    -0.2990 hc         1 9JG       0.041700
     35 H5           5.3990     5.9000    -0.5710 hc         1 9JG       0.041700
     36 H6           4.1090     6.4890    -1.6490 hc         1 9JG       0.041700
     37 H7           2.7620     2.2420    -0.7710 hn         1 9JG       0.148000
     38 H8          -1.7850     0.8930     1.2820 h4         1 9JG       0.039100
     39 H9           2.7670    -0.1370    -0.2230 ha         1 9JG       0.127000
     40 H10          3.1960    -4.0200     1.3990 ha         1 9JG       0.128000
     41 H11          5.4240    -4.6540     0.4710 h4         1 9JG       0.020100
     42 H12          4.7640    -2.4540    -2.9930 h4         1 9JG       0.020100
     43 H13          2.5070    -1.7370    -2.2080 ha         1 9JG       0.128000
     44 H14          0.6760    -4.4800     0.4080 ha         1 9JG       0.120000
     45 H15         -1.5910    -3.9590     1.2160 ha         1 9JG       0.118000
     46 H16         -3.1810    -2.4600     2.0460 h1         1 9JG       0.067700
     47 H17         -2.7320    -0.7930     2.4300 h1         1 9JG       0.067700
     48 H18         -3.3600    -1.2910    -0.4160 hn         1 9JG       0.332500
     49 H19         -7.3440     0.0710     0.0220 h1         1 9JG       0.069700
     50 H20         -6.4330     1.6000    -0.0520 h1         1 9JG       0.069700
     51 H21         -7.6290     1.0850    -4.0820 ha         1 9JG       0.257000
@<TRIPOS>BOND
     1     1     2 2   
     2     2     3 1   
     3     2     6 1   
     4     3     4 1   
     5     3    31 1   
     6     4     5 1   
     7     4    32 1   
     8     4    33 1   
     9     5    34 1   
    10     5    35 1   
    11     5    36 1   
    12     6     7 1   
    13     6    37 1   
    14     7     8 ar  
    15     7    11 ar  
    16     8     9 ar  
    17     9    10 ar  
    18     9    38 1   
    19    10    12 ar  
    20    10    22 ar  
    21    11    12 ar  
    22    11    39 1   
    23    12    13 ar  
    24    13    14 1   
    25    13    20 ar  
    26    14    15 ar  
    27    14    19 ar  
    28    15    16 ar  
    29    15    40 1   
    30    16    17 ar  
    31    16    41 1   
    32    17    18 ar  
    33    18    19 ar  
    34    18    42 1   
    35    19    43 1   
    36    20    21 ar  
    37    20    44 1   
    38    21    22 ar  
    39    21    45 1   
    40    22    23 1   
    41    23    24 1   
    42    23    46 1   
    43    23    47 1   
    44    24    25 1   
    45    24    48 1   
    46    25    26 2   
    47    25    27 1   
    48    27    28 1   
    49    28    29 1   
    50    28    49 1   
    51    28    50 1   
    52    29    30 3   
    53    30    51 1   
@<TRIPOS>SUBSTRUCTURE
     1 9JG         1 TEMP              0 ****  ****    0 ROOT
