@<TRIPOS>MOLECULE
9JH
   29    30     1     0     0
SMALL
No Charge or Current Charge


@<TRIPOS>ATOM
      1 O15          4.5820    -1.0880     0.8540 o          1 9JH      -0.604100
      2 C14          3.9990    -0.0540     0.5710 c          1 9JH       0.616700
      3 N16          4.6210     1.1250     0.7870 nt         1 9JH      -0.603000
      4 C3          -2.9720     1.2200    -0.1410 ca         1 9JH      -0.104500
      5 C4          -2.4850    -0.0220    -0.5950 ca         1 9JH      -0.079300
      6 C5          -2.9770    -1.2100    -0.0200 ca         1 9JH      -0.104500
      7 C7          -1.4280    -0.0780    -1.6900 c3         1 9JH       0.011200
      8 C6          -3.9480    -1.1570     0.9950 ca         1 9JH      -0.108500
      9 C1          -4.4320     0.0840     1.4420 ca         1 9JH      -0.109000
     10 C2          -3.9430     1.2720     0.8740 ca         1 9JH      -0.108500
     11 C10          1.9280    -1.2550    -0.2490 ca         1 9JH      -0.069000
     12 C11          2.6020    -0.0360    -0.0140 ca         1 9JH      -0.155600
     13 C9           0.6310    -1.2680    -0.7900 ca         1 9JH      -0.115500
     14 C8          -0.0200    -0.0640    -1.1090 ca         1 9JH      -0.053300
     15 C13          0.6420     1.1550    -0.8770 ca         1 9JH      -0.115500
     16 C12          1.9390     1.1740    -0.3360 ca         1 9JH      -0.069000
     17 H1          -5.1840     0.1240     2.2280 ha         1 9JH       0.113000
     18 H2          -4.3160     2.2340     1.2210 ha         1 9JH       0.112500
     19 H6          -4.3250    -2.0780     1.4350 ha         1 9JH       0.112500
     20 H5          -2.6060    -2.1750    -0.3590 ha         1 9JH       0.110500
     21 H71C        -1.5710    -0.9770    -2.3030 hc         1 9JH       0.056700
     22 H72C        -1.5570     0.7650    -2.3800 hc         1 9JH       0.056700
     23 H9           0.1310    -2.2190    -0.9590 ha         1 9JH       0.115500
     24 H13          0.1480     2.0950    -1.1150 ha         1 9JH       0.115500
     25 H10          2.4080    -2.2020    -0.0110 ha         1 9JH       0.123000
     26 H12          2.4150     2.1370    -0.1720 ha         1 9JH       0.123000
     27 H161         5.5520     1.1250     1.1760 hn         1 9JH       0.312500
     28 H162         4.1600     1.9920     0.5610 hn         1 9JH       0.312500
     29 H3          -2.5970     2.1450    -0.5730 ha         1 9JH       0.110500
@<TRIPOS>BOND
     1     1     2 2   
     2     2     3 1   
     3     2    12 1   
     4     3    27 1   
     5     3    28 1   
     6     4     5 ar  
     7     4    10 ar  
     8     4    29 1   
     9     5     6 ar  
    10     5     7 1   
    11     6     8 ar  
    12     6    20 1   
    13     7    14 1   
    14     7    21 1   
    15     7    22 1   
    16     8     9 ar  
    17     8    19 1   
    18     9    10 ar  
    19     9    17 1   
    20    10    18 1   
    21    11    12 ar  
    22    11    13 ar  
    23    11    25 1   
    24    12    16 ar  
    25    13    14 ar  
    26    13    23 1   
    27    14    15 ar  
    28    15    16 ar  
    29    15    24 1   
    30    16    26 1   
@<TRIPOS>SUBSTRUCTURE
     1 9JH         1 TEMP              0 ****  ****    0 ROOT
