@<TRIPOS>MOLECULE
9JH
   29    30     1     0     0
SMALL
bcc


@<TRIPOS>ATOM
      1 O15          4.7370    -0.9680     0.1160 o          1 9JH      -0.604100
      2 C14          3.9590    -0.0650     0.3940 c          1 9JH       0.683700
      3 N16          4.2940     0.9630     1.1910 nt         1 9JH      -0.670000
      4 C3          -3.0980     1.2000    -0.3960 ca         1 9JH      -0.122500
      5 C4          -2.4480    -0.0120    -0.6070 ca         1 9JH      -0.079300
      6 C5          -2.7120    -1.0720     0.2580 ca         1 9JH      -0.122500
      7 C7          -1.4480    -0.1740    -1.7260 c3         1 9JH       0.011200
      8 C6          -3.6030    -0.9230     1.3100 ca         1 9JH      -0.126500
      9 C1          -4.2450     0.2930     1.5160 ca         1 9JH      -0.127000
     10 C2          -3.9910     1.3540     0.6590 ca         1 9JH      -0.126500
     11 C10          2.0110    -1.2540    -0.5740 ca         1 9JH      -0.087000
     12 C11          2.5670    -0.0510    -0.1500 ca         1 9JH      -0.155600
     13 C9           0.7230    -1.2940    -1.0860 ca         1 9JH      -0.133500
     14 C8          -0.0350    -0.1330    -1.2050 ca         1 9JH      -0.053300
     15 C13          0.5340     1.0730    -0.8020 ca         1 9JH      -0.133500
     16 C12          1.8150     1.1170    -0.2790 ca         1 9JH      -0.087000
     17 H1          -4.9410     0.4090     2.3370 ha         1 9JH       0.131000
     18 H2          -4.4890     2.3040     0.8070 ha         1 9JH       0.130500
     19 H6          -3.8000    -1.7580     1.9710 ha         1 9JH       0.130500
     20 H5          -2.2160    -2.0240     0.1070 ha         1 9JH       0.128500
     21 H71C        -1.6190    -1.1220    -2.2400 hc         1 9JH       0.056700
     22 H72C        -1.5920     0.6170    -2.4650 hc         1 9JH       0.056700
     23 H9           0.3050    -2.2430    -1.3990 ha         1 9JH       0.133500
     24 H13         -0.0290     1.9940    -0.9010 ha         1 9JH       0.133500
     25 H10          2.5830    -2.1690    -0.4950 ha         1 9JH       0.141000
     26 H12          2.2260     2.0780     0.0030 ha         1 9JH       0.141000
     27 H161         5.2060     0.9810     1.6190 hn         1 9JH       0.312500
     28 H162         3.6140     1.6090     1.5500 hn         1 9JH       0.312500
     29 H3          -2.9090     2.0330    -1.0630 ha         1 9JH       0.128500
@<TRIPOS>BOND
     1     1     2 2   
     2     2     3 1   
     3     2    12 1   
     4     3    27 1   
     5     3    28 1   
     6     4     5 ar  
     7     4    10 ar  
     8     4    29 1   
     9     5     6 ar  
    10     5     7 1   
    11     6     8 ar  
    12     6    20 1   
    13     7    14 1   
    14     7    21 1   
    15     7    22 1   
    16     8     9 ar  
    17     8    19 1   
    18     9    10 ar  
    19     9    17 1   
    20    10    18 1   
    21    11    12 ar  
    22    11    13 ar  
    23    11    25 1   
    24    12    16 ar  
    25    13    14 ar  
    26    13    23 1   
    27    14    15 ar  
    28    15    16 ar  
    29    15    24 1   
    30    16    26 1   
@<TRIPOS>SUBSTRUCTURE
     1 9JH         1 TEMP              0 ****  ****    0 ROOT
