@<TRIPOS>MOLECULE
9JI
   64    69     1     0     0
SMALL
abcg2


@<TRIPOS>ATOM
      1 C1         -26.1130   -28.4260    55.2430 cc         1 9JI       0.251900
      2 C2         -25.9260   -27.0400    55.4450 cc         1 9JI      -0.132800
      3 C3         -24.6750   -26.3270    55.6400 cc         1 9JI      -0.045200
      4 C4         -24.5240   -24.9540    55.8280 cd         1 9JI      -0.166100
      5 C5         -22.4600   -25.8780    55.8790 cd         1 9JI      -0.250000
      6 C6         -21.0380   -25.7160    55.9710 cd         1 9JI       0.456900
      7 N          -28.0570   -27.5610    55.2090 na         1 9JI       0.118800
      8 C          -29.5020   -27.5160    55.1010 c3         1 9JI       0.077900
      9 C10        -15.4820   -30.3960    55.9190 ca         1 9JI       0.167400
     10 C11        -15.8320   -31.6510    56.4190 ca         1 9JI      -0.254300
     11 C7         -20.5150   -28.1230    56.3670 c6         1 9JI       0.194300
     12 C8         -20.0130   -29.1190    55.3270 c6         1 9JI       0.207300
     13 C9         -17.6650   -29.8400    55.5670 ca         1 9JI       0.383900
     14 C12        -14.7560   -32.6190    56.8970 c3         1 9JI       0.292800
     15 C13        -15.3530   -33.9400    57.4190 c3         1 9JI      -0.122100
     16 C14        -13.9700   -31.9550    58.0380 ca         1 9JI      -0.093300
     17 C15        -14.6560   -31.5250    59.1770 ca         1 9JI      -0.074500
     18 C16        -13.9930   -30.9280    60.2400 ca         1 9JI      -0.149000
     19 C17        -12.6210   -30.7640    60.1490 ca         1 9JI       0.165000
     20 C18        -11.9040   -31.1730    59.0440 ca         1 9JI      -0.149000
     21 C19        -12.5910   -31.7700    57.9880 ca         1 9JI      -0.074500
     22 C20        -17.1960   -31.8980    56.4420 ca         1 9JI       0.167400
     23 C21        -18.2250   -27.5720    54.7540 c6         1 9JI       0.207300
     24 C22        -18.7440   -26.5660    55.7820 c6         1 9JI       0.194300
     25 C23        -21.3710   -23.4360    56.0730 cc         1 9JI       0.133900
     26 C24        -23.3840   -26.9000    55.6650 cc         1 9JI      -0.191000
     27 C25        -27.2150   -26.5250    55.4140 cd         1 9JI      -0.158000
     28 F          -11.9630   -30.1720    61.1820 f          1 9JI      -0.184000
     29 N1         -27.4010   -28.7330    55.1010 nd         1 9JI      -0.525800
     30 N2         -23.2020   -24.6920    55.9600 na         1 9JI       0.272900
     31 N3         -20.1800   -26.7590    55.9700 nh         1 9JI      -0.778300
     32 N4         -18.5830   -28.9350    55.1240 nh         1 9JI      -0.775300
     33 N5         -16.3590   -29.4990    55.4950 nb         1 9JI      -0.248000
     34 N6         -13.8620   -32.8680    55.7470 n8         1 9JI      -0.995200
     35 N7         -18.1110   -31.0200    56.0300 nb         1 9JI      -0.248000
     36 N8         -20.5260   -24.4830    56.0280 nc         1 9JI      -0.314000
     37 N9         -22.6760   -23.4420    56.0710 nd         1 9JI      -0.300800
     38 H1         -25.3650   -29.2020    55.1980 h4         1 9JI       0.035100
     39 H2         -25.2450   -24.1560    55.8610 h4         1 9JI       0.232000
     40 H3         -29.8140   -27.8760    54.1210 h1         1 9JI       0.055700
     41 H4         -29.9520   -28.1370    55.8750 h1         1 9JI       0.055700
     42 H5         -29.8260   -26.4860    55.2290 h1         1 9JI       0.055700
     43 H7         -21.5780   -28.2290    56.5280 h1         1 9JI       0.070700
     44 H8         -20.0140   -28.3260    57.3210 h1         1 9JI       0.070700
     45 H9         -20.5300   -28.9490    54.3780 h1         1 9JI       0.077950
     46 H10        -20.2040   -30.1340    55.6560 h1         1 9JI       0.077950
     47 H11        -16.0170   -33.7910    58.2710 hc         1 9JI       0.044033
     48 H12        -15.9090   -34.4440    56.6260 hc         1 9JI       0.044033
     49 H13        -14.5370   -34.5910    57.7340 hc         1 9JI       0.044033
     50 H14        -15.7300   -31.6440    59.2360 ha         1 9JI       0.122500
     51 H15        -14.5240   -30.5910    61.1200 ha         1 9JI       0.133000
     52 H16        -10.8330   -31.0260    59.0050 ha         1 9JI       0.133000
     53 H17        -12.0360   -32.0760    57.1140 ha         1 9JI       0.122500
     54 H18        -17.5870   -32.8380    56.8110 h4         1 9JI       0.029100
     55 H19        -17.1470   -27.4920    54.6720 h1         1 9JI       0.077950
     56 H20        -18.6720   -27.3500    53.7810 h1         1 9JI       0.077950
     57 H21        -18.2270   -26.7070    56.7370 h1         1 9JI       0.070700
     58 H22        -18.5630   -25.5540    55.4380 h1         1 9JI       0.070700
     59 H23        -20.9190   -22.4530    56.1380 h5         1 9JI       0.053100
     60 H24        -23.1720   -27.9420    55.5140 ha         1 9JI       0.201000
     61 H25        -27.5830   -25.5180    55.5220 h4         1 9JI       0.152000
     62 H26        -13.2000   -33.6020    55.9840 hn         1 9JI       0.400000
     63 H27        -14.4230   -33.2330    54.9840 hn         1 9JI       0.400000
     64 H6         -14.4370   -30.1060    55.8660 h4         1 9JI       0.029100
@<TRIPOS>BOND
     1     1     2 1   
     2     1    29 2   
     3     1    38 1   
     4     2     3 1   
     5     2    27 2   
     6     3     4 2   
     7     3    26 1   
     8     4    30 1   
     9     4    39 1   
    10     5     6 1   
    11     5    26 2   
    12     5    30 1   
    13     6    31 1   
    14     6    36 2   
    15     7     8 1   
    16     7    27 1   
    17     7    29 1   
    18     8    40 1   
    19     8    41 1   
    20     8    42 1   
    21     9    10 ar  
    22     9    33 ar  
    23     9    64 1   
    24    10    14 1   
    25    10    22 ar  
    26    11    12 1   
    27    11    31 1   
    28    11    43 1   
    29    11    44 1   
    30    12    32 1   
    31    12    45 1   
    32    12    46 1   
    33    13    32 1   
    34    13    33 ar  
    35    13    35 ar  
    36    14    15 1   
    37    14    16 1   
    38    14    34 1   
    39    15    47 1   
    40    15    48 1   
    41    15    49 1   
    42    16    17 ar  
    43    16    21 ar  
    44    17    18 ar  
    45    17    50 1   
    46    18    19 ar  
    47    18    51 1   
    48    19    20 ar  
    49    19    28 1   
    50    20    21 ar  
    51    20    52 1   
    52    21    53 1   
    53    22    35 ar  
    54    22    54 1   
    55    23    24 1   
    56    23    32 1   
    57    23    55 1   
    58    23    56 1   
    59    24    31 1   
    60    24    57 1   
    61    24    58 1   
    62    25    36 1   
    63    25    37 2   
    64    25    59 1   
    65    26    60 1   
    66    27    61 1   
    67    30    37 1   
    68    34    62 1   
    69    34    63 1   
@<TRIPOS>SUBSTRUCTURE
     1 9JI         1 TEMP              0 ****  ****    0 ROOT
