@<TRIPOS>MOLECULE
9JI
   64    69     1     0     0
SMALL
No Charge or Current Charge


@<TRIPOS>ATOM
      1 C1         -25.8880   -28.4220    54.6000 cc         1 9JI       0.251900
      2 C2         -25.9390   -27.0390    54.8290 cc         1 9JI      -0.132800
      3 C3         -24.8670   -26.1900    55.2580 cc         1 9JI      -0.045200
      4 C4         -24.9910   -24.8280    55.4590 cd         1 9JI      -0.166100
      5 C5         -22.8370   -25.4900    55.9040 cd         1 9JI      -0.250000
      6 C6         -21.4830   -25.2830    56.2600 cd         1 9JI       0.456900
      7 N          -27.8710   -27.8150    54.1880 na         1 9JI       0.118800
      8 C          -29.2830   -27.9370    53.7980 c3         1 9JI       0.077900
      9 C10        -15.5710   -30.4760    56.2830 ca         1 9JI       0.167400
     10 C11        -15.9260   -31.7150    56.8520 ca         1 9JI      -0.254300
     11 C7         -20.8170   -27.4670    57.2860 c6         1 9JI       0.194300
     12 C8         -20.0770   -28.7730    56.8580 c6         1 9JI       0.207300
     13 C9         -17.6810   -29.6540    56.6870 ca         1 9JI       0.383900
     14 C12        -14.8950   -32.8400    56.9370 c3         1 9JI       0.292800
     15 C13        -15.4020   -34.0930    57.6900 c3         1 9JI      -0.122100
     16 C14        -13.6220   -32.3130    57.6360 ca         1 9JI      -0.093300
     17 C15        -13.7350   -31.7600    58.9330 ca         1 9JI      -0.074500
     18 C16        -12.6050   -31.2650    59.6070 ca         1 9JI      -0.149000
     19 C17        -11.3470   -31.3160    58.9930 ca         1 9JI       0.165000
     20 C18        -11.2120   -31.8580    57.7080 ca         1 9JI      -0.149000
     21 C19        -12.3410   -32.3540    57.0290 ca         1 9JI      -0.074500
     22 C20        -17.2480   -31.8220    57.3320 ca         1 9JI       0.167400
     23 C21        -18.3100   -27.3590    55.7510 c6         1 9JI       0.207300
     24 C22        -19.0940   -26.0790    56.1870 c6         1 9JI       0.194300
     25 C23        -22.0460   -23.0600    56.4280 cc         1 9JI       0.133900
     26 C24        -23.5320   -26.6100    55.5270 cc         1 9JI      -0.191000
     27 C25        -27.2130   -26.6380    54.5660 cd         1 9JI      -0.158000
     28 F          -10.2610   -30.8400    59.6400 f          1 9JI      -0.184000
     29 N1         -27.0400   -28.9320    54.2090 nd         1 9JI      -0.525800
     30 N2         -23.7150   -24.4500    55.8500 na         1 9JI       0.272900
     31 N3         -20.5610   -26.3320    56.3470 nh         1 9JI      -0.778300
     32 N4         -18.6020   -28.5720    56.6040 nh         1 9JI      -0.775300
     33 N5         -16.4400   -29.4510    56.2000 nb         1 9JI      -0.248000
     34 N6         -14.6440   -33.2580    55.5600 n8         1 9JI      -0.995200
     35 N7         -18.1200   -30.7990    57.2500 nb         1 9JI      -0.248000
     36 N8         -21.0710   -24.0510    56.5230 nc         1 9JI      -0.314000
     37 N9         -23.3490   -23.1520    56.1090 nd         1 9JI      -0.300800
     38 H1         -25.0350   -29.0780    54.7080 h4         1 9JI       0.035100
     39 H2         -25.8190   -24.1400    55.3560 h4         1 9JI       0.232000
     40 H3         -29.3490   -28.3280    52.7760 h1         1 9JI       0.055700
     41 H4         -29.7950   -28.6210    54.4840 h1         1 9JI       0.055700
     42 H5         -29.7650   -26.9530    53.8410 h1         1 9JI       0.055700
     43 H7         -21.8920   -27.6800    57.3750 h1         1 9JI       0.070700
     44 H8         -20.4740   -27.1920    58.2940 h1         1 9JI       0.070700
     45 H9         -20.5590   -29.1630    55.9490 h1         1 9JI       0.077950
     46 H10        -20.2500   -29.5130    57.6530 h1         1 9JI       0.077950
     47 H11        -15.6970   -33.8440    58.7170 hc         1 9JI       0.044033
     48 H12        -16.2680   -34.5420    57.1880 hc         1 9JI       0.044033
     49 H13        -14.6140   -34.8540    57.7490 hc         1 9JI       0.044033
     50 H14        -14.7060   -31.7080    59.4210 ha         1 9JI       0.122500
     51 H15        -12.7040   -30.8410    60.6030 ha         1 9JI       0.133000
     52 H16        -10.2330   -31.8930    57.2360 ha         1 9JI       0.133000
     53 H17        -12.2030   -32.7650    56.0330 ha         1 9JI       0.122500
     54 H18        -17.6320   -32.7290    57.7940 h4         1 9JI       0.029100
     55 H19        -17.2420   -27.1000    55.7720 h1         1 9JI       0.077950
     56 H20        -18.5640   -27.5770    54.7030 h1         1 9JI       0.077950
     57 H21        -18.6730   -25.7170    57.1360 h1         1 9JI       0.070700
     58 H22        -18.9150   -25.2930    55.4380 h1         1 9JI       0.070700
     59 H23        -21.6550   -22.0750    56.6520 h5         1 9JI       0.053100
     60 H24        -23.1520   -27.6240    55.4270 ha         1 9JI       0.201000
     61 H25        -27.6940   -25.6680    54.6110 h4         1 9JI       0.152000
     62 H26        -14.0600   -34.0980    55.5840 hn         1 9JI       0.400000
     63 H27        -15.5270   -33.5870    55.1620 hn         1 9JI       0.400000
     64 H6         -14.5720   -30.2960    55.8890 h4         1 9JI       0.029100
@<TRIPOS>BOND
     1     1     2 1   
     2     1    29 2   
     3     1    38 1   
     4     2     3 1   
     5     2    27 2   
     6     3     4 2   
     7     3    26 1   
     8     4    30 1   
     9     4    39 1   
    10     5     6 1   
    11     5    26 2   
    12     5    30 1   
    13     6    31 1   
    14     6    36 2   
    15     7     8 1   
    16     7    27 1   
    17     7    29 1   
    18     8    40 1   
    19     8    41 1   
    20     8    42 1   
    21     9    10 ar  
    22     9    33 ar  
    23     9    64 1   
    24    10    14 1   
    25    10    22 ar  
    26    11    12 1   
    27    11    31 1   
    28    11    43 1   
    29    11    44 1   
    30    12    32 1   
    31    12    45 1   
    32    12    46 1   
    33    13    32 1   
    34    13    33 ar  
    35    13    35 ar  
    36    14    15 1   
    37    14    16 1   
    38    14    34 1   
    39    15    47 1   
    40    15    48 1   
    41    15    49 1   
    42    16    17 ar  
    43    16    21 ar  
    44    17    18 ar  
    45    17    50 1   
    46    18    19 ar  
    47    18    51 1   
    48    19    20 ar  
    49    19    28 1   
    50    20    21 ar  
    51    20    52 1   
    52    21    53 1   
    53    22    35 ar  
    54    22    54 1   
    55    23    24 1   
    56    23    32 1   
    57    23    55 1   
    58    23    56 1   
    59    24    31 1   
    60    24    57 1   
    61    24    58 1   
    62    25    36 1   
    63    25    37 2   
    64    25    59 1   
    65    26    60 1   
    66    27    61 1   
    67    30    37 1   
    68    34    62 1   
    69    34    63 1   
@<TRIPOS>SUBSTRUCTURE
     1 9JI         1 TEMP              0 ****  ****    0 ROOT
