@<TRIPOS>MOLECULE
9JK
   27    28     1     0     0
SMALL
No Charge or Current Charge


@<TRIPOS>ATOM
      1 C11         -2.2270    -0.2590     0.0030 ca         1 9JK      -0.024000
      2 C12         -2.8510     0.9860    -0.2380 ca         1 9JK      -0.148000
      3 C13         -4.2530     1.0940    -0.2280 ca         1 9JK      -0.083500
      4 C14         -5.0460    -0.0380     0.0200 ca         1 9JK      -0.134000
      5 C15         -4.4370    -1.2800     0.2560 ca         1 9JK      -0.083500
      6 C02          2.8360     0.4980     0.1820 ca         1 9JK      -0.029000
      7 C03          4.0760    -0.1670     0.1560 ca         1 9JK      -0.097000
      8 C04          4.1630    -1.5330    -0.1430 ca         1 9JK      -0.083000
      9 C05          2.9980    -2.2550    -0.4210 ca         1 9JK      -0.115000
     10 C06          1.7500    -1.6130    -0.4000 ca         1 9JK      -0.084000
     11 C07          1.6370    -0.2280    -0.0980 ca         1 9JK      -0.158600
     12 C08          0.2560     0.4280    -0.0930 c          1 9JK       0.621700
     13 O09          0.1100     1.6400    -0.1980 o          1 9JK      -0.590100
     14 N10         -0.8170    -0.4520     0.0060 ns         1 9JK      -0.134000
     15 C16         -3.0360    -1.3870     0.2460 ca         1 9JK      -0.148000
     16 H1          -2.2720     1.8810    -0.4420 ha         1 9JK       0.127500
     17 H2          -4.7250     2.0560    -0.4150 ha         1 9JK       0.114000
     18 H3          -6.1310     0.0480     0.0270 ha         1 9JK       0.116000
     19 H4          -5.0500    -2.1590     0.4470 ha         1 9JK       0.114000
     20 H5           1.6070     2.5090     0.2230 hs         1 9JK       0.247800
     21 H6           4.9870     0.3860     0.3750 ha         1 9JK       0.132000
     22 H7           5.1310    -2.0290    -0.1590 ha         1 9JK       0.120000
     23 H8           3.0600    -3.3150    -0.6590 ha         1 9JK       0.121000
     24 H9           0.8760    -2.2130    -0.6420 ha         1 9JK       0.118000
     25 H10         -0.5430    -1.4190     0.1120 hn         1 9JK       0.157000
     26 H11         -2.5770    -2.3570     0.4310 ha         1 9JK       0.127500
     27 S01          2.8770     2.2350     0.6140 sh         1 9JK      -0.205800
@<TRIPOS>BOND
     1     1     2 ar  
     2     1    14 1   
     3     1    15 ar  
     4     2     3 ar  
     5     2    16 1   
     6     3     4 ar  
     7     3    17 1   
     8     4     5 ar  
     9     4    18 1   
    10     5    15 ar  
    11     5    19 1   
    12     6     7 ar  
    13     6    11 ar  
    14     6    27 1   
    15     7     8 ar  
    16     7    21 1   
    17     8     9 ar  
    18     8    22 1   
    19     9    10 ar  
    20     9    23 1   
    21    10    11 ar  
    22    10    24 1   
    23    11    12 1   
    24    12    13 2   
    25    12    14 1   
    26    14    25 1   
    27    15    26 1   
    28    20    27 1   
@<TRIPOS>SUBSTRUCTURE
     1 9JK         1 TEMP              0 ****  ****    0 ROOT
