@<TRIPOS>MOLECULE
9JK
   27    28     1     0     0
SMALL
abcg2


@<TRIPOS>ATOM
      1 C11         -2.1680    -0.2470     0.0510 ca         1 9JK      -0.024000
      2 C12         -2.7800     0.9140    -0.4250 ca         1 9JK      -0.148000
      3 C13         -4.1660     1.0090    -0.4160 ca         1 9JK      -0.083500
      4 C14         -4.9580    -0.0240     0.0590 ca         1 9JK      -0.134000
      5 C15         -4.3460    -1.1780     0.5330 ca         1 9JK      -0.083500
      6 C02          2.6630     0.3920     0.3660 ca         1 9JK      -0.029000
      7 C03          3.9030    -0.2420     0.4030 ca         1 9JK      -0.097000
      8 C04          4.0750    -1.5040    -0.1450 ca         1 9JK      -0.083000
      9 C05          3.0080    -2.1520    -0.7460 ca         1 9JK      -0.115000
     10 C06          1.7680    -1.5340    -0.7760 ca         1 9JK      -0.084000
     11 C07          1.5750    -0.2730    -0.2150 ca         1 9JK      -0.158600
     12 C08          0.2200     0.3530    -0.3170 c          1 9JK       0.621700
     13 O09          0.0630     1.4850    -0.7460 o          1 9JK      -0.590100
     14 N10         -0.7840    -0.4580     0.0870 ns         1 9JK      -0.134000
     15 C16         -2.9670    -1.2890     0.5300 ca         1 9JK      -0.148000
     16 H1          -2.1970     1.7390    -0.7990 ha         1 9JK       0.127500
     17 H2          -4.6250     1.9150    -0.7900 ha         1 9JK       0.114000
     18 H3          -6.0360     0.0660     0.0600 ha         1 9JK       0.116000
     19 H4          -4.9420    -2.0000     0.9080 ha         1 9JK       0.114000
     20 H5           1.6520     2.5430     0.4420 hs         1 9JK       0.247800
     21 H6           4.7470     0.2640     0.8550 ha         1 9JK       0.132000
     22 H7           5.0510    -1.9690    -0.1110 ha         1 9JK       0.120000
     23 H8           3.1380    -3.1290    -1.1920 ha         1 9JK       0.121000
     24 H9           0.9380    -2.0380    -1.2560 ha         1 9JK       0.118000
     25 H10         -0.5040    -1.3390     0.4930 hn         1 9JK       0.157000
     26 H11         -2.5020    -2.1950     0.9020 ha         1 9JK       0.127500
     27 S01          2.5720     1.9480     1.2040 sh         1 9JK      -0.205800
@<TRIPOS>BOND
     1     1     2 ar  
     2     1    14 1   
     3     1    15 ar  
     4     2     3 ar  
     5     2    16 1   
     6     3     4 ar  
     7     3    17 1   
     8     4     5 ar  
     9     4    18 1   
    10     5    15 ar  
    11     5    19 1   
    12     6     7 ar  
    13     6    11 ar  
    14     6    27 1   
    15     7     8 ar  
    16     7    21 1   
    17     8     9 ar  
    18     8    22 1   
    19     9    10 ar  
    20     9    23 1   
    21    10    11 ar  
    22    10    24 1   
    23    11    12 1   
    24    12    13 2   
    25    12    14 1   
    26    14    25 1   
    27    15    26 1   
    28    20    27 1   
@<TRIPOS>SUBSTRUCTURE
     1 9JK         1 TEMP              0 ****  ****    0 ROOT
