@<TRIPOS>MOLECULE
9JL
   59    63     1     0     0
SMALL
abcg2


@<TRIPOS>ATOM
      1 C1         -16.9250   -24.0590    26.9300 ca         1 9JL      -0.042300
      2 C13        -16.8740   -25.5070    28.8900 ca         1 9JL      -0.072300
      3 C14        -17.2620   -25.7610    30.3240 c3         1 9JL       0.210100
      4 C15        -17.6790   -24.7770    32.4630 c3         1 9JL       0.150600
      5 C17        -16.1920   -26.4650    28.1520 ca         1 9JL      -0.117000
      6 C19        -16.2590   -25.0490    26.1900 ca         1 9JL      -0.024000
      7 N          -17.0150   -24.6240    31.1870 n3         1 9JL      -0.715600
      8 C          -17.2990   -22.7390    26.3220 c3         1 9JL      -0.050800
      9 O           -9.9710   -27.2370    21.5790 os         1 9JL      -0.328100
     10 C12        -17.2220   -24.3130    28.2640 ca         1 9JL      -0.094000
     11 C16        -15.6000   -24.3760    31.3590 c3         1 9JL       0.150600
     12 C18        -15.8950   -26.2370    26.8160 ca         1 9JL      -0.095000
     13 C1A        -15.9050   -24.8460    24.7710 cc         1 9JL      -0.096000
     14 C1B        -14.6180   -24.7870    24.3240 cd         1 9JL       0.383900
     15 C1C        -15.1600   -24.4760    22.1190 cc         1 9JL       0.810400
     16 C1D        -13.4730   -24.1510    20.3900 c3         1 9JL       0.299100
     17 C1E        -12.7880   -25.4830    20.2360 ca         1 9JL      -0.101300
     18 C1F        -11.6740   -25.8370    20.9750 ca         1 9JL      -0.112300
     19 C1G        -11.0470   -27.0640    20.7840 ca         1 9JL       0.110100
     20 C1H        -11.5050   -27.9850    19.8630 ca         1 9JL      -0.104000
     21 C1I        -12.6270   -27.6420    19.1100 ca         1 9JL      -0.117000
     22 C1K        -10.8910   -25.0800    22.0070 c5         1 9JL      -0.063100
     23 C1L         -9.9880   -26.1900    22.5650 c5         1 9JL       0.147600
     24 C1M        -13.2370   -26.4210    19.3080 ca         1 9JL       0.138000
     25 C1N        -16.9020   -24.7380    23.7690 cc         1 9JL      -0.016000
     26 C1O        -18.6500   -24.6410    22.5760 cd         1 9JL       0.169900
     27 C1P        -20.0350   -24.6430    22.2600 ch         1 9JL       0.323700
     28 C1Q        -17.6280   -24.4900    21.6830 cc         1 9JL      -0.235100
     29 F          -14.3160   -26.1080    18.5600 f          1 9JL      -0.190000
     30 N1         -14.2490   -24.6060    23.0350 nd         1 9JL      -0.782000
     31 N12        -14.8460   -24.2490    20.8400 nu         1 9JL      -0.940100
     32 N13        -16.4970   -24.5540    22.4540 na         1 9JL      -0.120400
     33 N14        -18.2080   -24.7960    23.8550 nd         1 9JL      -0.253600
     34 N15        -21.1570   -24.6420    22.0030 n1         1 9JL      -0.442000
     35 H1         -18.3340   -25.9810    30.3580 h1         1 9JL       0.038700
     36 H2         -16.7520   -26.6720    30.6820 h1         1 9JL       0.038700
     37 H3         -17.5260   -23.8850    33.0720 h1         1 9JL       0.031033
     38 H4         -18.7530   -24.9000    32.3160 h1         1 9JL       0.031033
     39 H5         -17.3170   -25.6410    33.0410 h1         1 9JL       0.031033
     40 H6         -15.8930   -27.3960    28.6190 ha         1 9JL       0.110000
     41 H8         -18.1600   -22.8340    25.6590 hc         1 9JL       0.046033
     42 H9         -17.5560   -22.0150    27.0940 hc         1 9JL       0.046033
     43 H10        -16.4830   -22.3220    25.7300 hc         1 9JL       0.046033
     44 H11        -17.7270   -23.5470    28.8430 ha         1 9JL       0.128000
     45 H12        -15.4510   -23.4860    31.9710 h1         1 9JL       0.031033
     46 H13        -15.0750   -25.2120    31.8480 h1         1 9JL       0.031033
     47 H14        -15.1210   -24.2000    30.3960 h1         1 9JL       0.031033
     48 H15        -15.3730   -26.9970    26.2460 ha         1 9JL       0.112000
     49 H16        -13.8010   -24.8750    25.0310 h4         1 9JL       0.030100
     50 H17        -12.9130   -23.5230    21.0810 h1         1 9JL       0.069200
     51 H18        -13.4960   -23.6240    19.4360 h1         1 9JL       0.069200
     52 H19        -11.0180   -28.9400    19.7210 ha         1 9JL       0.137000
     53 H20        -13.0220   -28.3290    18.3740 ha         1 9JL       0.136000
     54 H21        -10.3120   -24.2740    21.5480 hc         1 9JL       0.075200
     55 H22        -10.3960   -26.5940    23.4950 h1         1 9JL       0.060700
     56 H23        -17.6420   -24.3560    20.6150 h4         1 9JL       0.239000
     57 H24        -15.5680   -24.1640    20.1460 hn         1 9JL       0.512000
     58 H7         -11.5200   -24.6400    22.7800 hc         1 9JL       0.075200
     59 H25         -8.9640   -25.8700    22.7440 h1         1 9JL       0.060700
@<TRIPOS>BOND
     1     1     6 ar  
     2     1     8 1   
     3     1    10 ar  
     4     2     3 1   
     5     2     5 ar  
     6     2    10 ar  
     7     3     7 1   
     8     3    35 1   
     9     3    36 1   
    10     4     7 1   
    11     4    37 1   
    12     4    38 1   
    13     4    39 1   
    14     5    12 ar  
    15     5    40 1   
    16     6    12 ar  
    17     6    13 1   
    18     7    11 1   
    19     8    41 1   
    20     8    42 1   
    21     8    43 1   
    22     9    19 1   
    23     9    23 1   
    24    10    44 1   
    25    11    45 1   
    26    11    46 1   
    27    11    47 1   
    28    12    48 1   
    29    13    14 2   
    30    13    25 1   
    31    14    30 1   
    32    14    49 1   
    33    15    30 2   
    34    15    31 1   
    35    15    32 1   
    36    16    17 1   
    37    16    31 1   
    38    16    50 1   
    39    16    51 1   
    40    17    18 ar  
    41    17    24 ar  
    42    18    19 ar  
    43    18    22 1   
    44    19    20 ar  
    45    20    21 ar  
    46    20    52 1   
    47    21    24 ar  
    48    21    53 1   
    49    22    23 1   
    50    22    54 1   
    51    22    58 1   
    52    23    55 1   
    53    23    59 1   
    54    24    29 1   
    55    25    32 1   
    56    25    33 2   
    57    26    27 1   
    58    26    28 2   
    59    26    33 1   
    60    27    34 3   
    61    28    32 1   
    62    28    56 1   
    63    31    57 1   
@<TRIPOS>SUBSTRUCTURE
     1 9JL         1 TEMP              0 ****  ****    0 ROOT
