@<TRIPOS>MOLECULE
9JL
   59    63     1     0     0
SMALL
No Charge or Current Charge


@<TRIPOS>ATOM
      1 C1         -17.3380   -24.4210    27.3570 ca         1 9JL      -0.042300
      2 C13        -16.8860   -24.7870    29.7420 ca         1 9JL      -0.072300
      3 C14        -17.3280   -24.6760    31.1990 c3         1 9JL       0.210100
      4 C15        -18.0630   -23.1940    33.0220 c3         1 9JL       0.150600
      5 C17        -15.6330   -25.3270    29.4140 ca         1 9JL      -0.117000
      6 C19        -16.0790   -24.9980    27.0210 ca         1 9JL      -0.024000
      7 N          -17.4400   -23.2770    31.6830 n3         1 9JL      -0.715600
      8 C          -18.2670   -23.7790    26.3300 c3         1 9JL      -0.050800
      9 O          -11.4010   -27.9470    17.9540 os         1 9JL      -0.328100
     10 C12        -17.7240   -24.3330    28.7110 ca         1 9JL      -0.094000
     11 C16        -16.1620   -22.5310    31.6110 c3         1 9JL       0.150600
     12 C18        -15.2350   -25.4250    28.0720 ca         1 9JL      -0.095000
     13 C1A        -15.6030   -25.1710    25.6320 cc         1 9JL      -0.096000
     14 C1B        -14.2990   -24.7420    25.4020 cd         1 9JL       0.383900
     15 C1C        -14.4770   -25.2470    23.1110 cc         1 9JL       0.810400
     16 C1D        -12.5330   -24.8770    21.5400 c3         1 9JL       0.299100
     17 C1E        -12.2680   -25.1280    20.0610 ca         1 9JL      -0.101300
     18 C1F        -11.9530   -26.4190    19.5870 ca         1 9JL      -0.112300
     19 C1G        -11.7070   -26.6490    18.2520 ca         1 9JL       0.110100
     20 C1H        -11.7450   -25.6160    17.3080 ca         1 9JL      -0.104000
     21 C1I        -12.0620   -24.3160    17.7500 ca         1 9JL      -0.117000
     22 C1K        -11.8060   -27.6880    20.3710 c5         1 9JL      -0.063100
     23 C1L        -11.7410   -28.6990    19.1680 c5         1 9JL       0.147600
     24 C1M        -12.3220   -24.0750    19.1160 ca         1 9JL       0.138000
     25 C1N        -16.3790   -25.6100    24.5250 cc         1 9JL      -0.016000
     26 C1O        -17.7790   -26.4510    23.0980 cd         1 9JL       0.169900
     27 C1P        -18.9790   -27.0380    22.5990 ch         1 9JL       0.323700
     28 C1Q        -16.6510   -26.1610    22.3550 cc         1 9JL      -0.235100
     29 F          -12.6220   -22.8180    19.5110 f          1 9JL      -0.190000
     30 N1         -13.7270   -24.8020    24.1170 nd         1 9JL      -0.782000
     31 N12        -13.8990   -25.2950    21.8800 nu         1 9JL      -0.940100
     32 N13        -15.8150   -25.6120    23.3040 na         1 9JL      -0.120400
     33 N14        -17.5950   -26.1200    24.4390 nd         1 9JL      -0.253600
     34 N15        -19.9520   -27.5200    22.1640 n1         1 9JL      -0.442000
     35 H1         -18.3020   -25.1760    31.2900 h1         1 9JL       0.038700
     36 H2         -16.6270   -25.2360    31.8330 h1         1 9JL       0.038700
     37 H3         -18.2070   -22.1460    33.3190 h1         1 9JL       0.031033
     38 H4         -19.0460   -23.6820    33.0250 h1         1 9JL       0.031033
     39 H5         -17.4330   -23.6830    33.7780 h1         1 9JL       0.031033
     40 H6         -14.9660   -25.6770    30.1980 ha         1 9JL       0.110000
     41 H8         -19.0500   -24.4770    26.0110 hc         1 9JL       0.046033
     42 H9         -18.7720   -22.9020    26.7520 hc         1 9JL       0.046033
     43 H10        -17.7280   -23.4280    25.4430 hc         1 9JL       0.046033
     44 H11        -18.6810   -23.8850    28.9690 ha         1 9JL       0.128000
     45 H12        -16.3000   -21.4930    31.9420 h1         1 9JL       0.031033
     46 H13        -15.4010   -22.9960    32.2510 h1         1 9JL       0.031033
     47 H14        -15.7770   -22.5030    30.5830 h1         1 9JL       0.031033
     48 H15        -14.2700   -25.8750    27.8510 ha         1 9JL       0.112000
     49 H16        -13.6620   -24.3450    26.1820 h4         1 9JL       0.030100
     50 H17        -11.8030   -25.4420    22.1370 h1         1 9JL       0.069200
     51 H18        -12.3880   -23.8140    21.7760 h1         1 9JL       0.069200
     52 H19        -11.5390   -25.8170    16.2590 ha         1 9JL       0.137000
     53 H20        -12.1040   -23.4940    17.0390 ha         1 9JL       0.136000
     54 H21        -10.8860   -27.7030    20.9660 hc         1 9JL       0.075200
     55 H22        -12.7230   -29.1650    19.0100 h1         1 9JL       0.060700
     56 H23        -16.4260   -26.3070    21.3040 h4         1 9JL       0.239000
     57 H24        -14.5460   -25.4610    21.1200 hn         1 9JL       0.512000
     58 H7         -12.6510   -27.8940    21.0380 hc         1 9JL       0.075200
     59 H25        -11.0080   -29.5010    19.3270 h1         1 9JL       0.060700
@<TRIPOS>BOND
     1     1     6 ar  
     2     1     8 1   
     3     1    10 ar  
     4     2     3 1   
     5     2     5 ar  
     6     2    10 ar  
     7     3     7 1   
     8     3    35 1   
     9     3    36 1   
    10     4     7 1   
    11     4    37 1   
    12     4    38 1   
    13     4    39 1   
    14     5    12 ar  
    15     5    40 1   
    16     6    12 ar  
    17     6    13 1   
    18     7    11 1   
    19     8    41 1   
    20     8    42 1   
    21     8    43 1   
    22     9    19 1   
    23     9    23 1   
    24    10    44 1   
    25    11    45 1   
    26    11    46 1   
    27    11    47 1   
    28    12    48 1   
    29    13    14 2   
    30    13    25 1   
    31    14    30 1   
    32    14    49 1   
    33    15    30 2   
    34    15    31 1   
    35    15    32 1   
    36    16    17 1   
    37    16    31 1   
    38    16    50 1   
    39    16    51 1   
    40    17    18 ar  
    41    17    24 ar  
    42    18    19 ar  
    43    18    22 1   
    44    19    20 ar  
    45    20    21 ar  
    46    20    52 1   
    47    21    24 ar  
    48    21    53 1   
    49    22    23 1   
    50    22    54 1   
    51    22    58 1   
    52    23    55 1   
    53    23    59 1   
    54    24    29 1   
    55    25    32 1   
    56    25    33 2   
    57    26    27 1   
    58    26    28 2   
    59    26    33 1   
    60    27    34 3   
    61    28    32 1   
    62    28    56 1   
    63    31    57 1   
@<TRIPOS>SUBSTRUCTURE
     1 9JL         1 TEMP              0 ****  ****    0 ROOT
