@<TRIPOS>MOLECULE
9JN
   44    47     1     0     0
SMALL
bcc


@<TRIPOS>ATOM
      1 C1           6.3530    -1.1110     1.7840 ca         1 9JN      -0.123000
      2 C2           6.4100     0.2760     1.8150 ca         1 9JN      -0.130000
      3 C3           5.4610    -1.7410     0.9250 ca         1 9JN      -0.130000
      4 C4          -6.5170    -0.1770    -1.3590 ca         1 9JN      -0.279300
      5 C5          -5.1380    -0.1940    -1.2420 ca         1 9JN      -0.045000
      6 C6           5.5760     1.0240     0.9940 ca         1 9JN      -0.109500
      7 C7           4.6330    -0.9900     0.1020 ca         1 9JN      -0.109500
      8 C8          -0.8070     0.2110     0.5220 cc         1 9JN      -0.082000
      9 C9          -7.3160    -0.2670    -0.2150 ca         1 9JN       0.421200
     10 C10         -3.4740    -0.4160     1.9720 cd         1 9JN      -0.082100
     11 C11         -1.7750    -0.7360    -1.3450 cd         1 9JN      -0.107100
     12 C12         -4.5990    -0.3050     0.0380 ca         1 9JN      -0.186100
     13 C13         -2.0020    -0.2940    -0.0670 cc         1 9JN      -0.036800
     14 C14         -3.2870    -0.3360     0.6150 cc         1 9JN      -0.067400
     15 C15          4.6810     0.4010     0.1320 ca         1 9JN      -0.086300
     16 C16          0.2750     0.1480    -0.3050 cd         1 9JN      -0.143700
     17 C17         -5.5200    -0.3720     1.1100 ca         1 9JN       0.430800
     18 C19          4.5050     1.2690    -2.1910 c3         1 9JN       0.133800
     19 C20          3.8430     1.2320    -0.8070 c3         1 9JN       0.162000
     20 N21         -6.8390    -0.3600     1.0180 nb         1 9JN      -0.681000
     21 N22         -4.8040    -0.4390     2.2650 na         1 9JN      -0.270100
     22 N23          2.5050     0.7130    -0.9810 ns         1 9JN      -0.559900
     23 N24          3.6460     1.9370    -3.1510 n8         1 9JN      -0.912800
     24 O25          1.9220     0.8860     1.1980 o          1 9JN      -0.589100
     25 S26         -0.1480    -0.5460    -1.8240 ss         1 9JN      -0.066800
     26 H1           6.9970    -1.6990     2.4260 ha         1 9JN       0.129000
     27 H2           7.0980     0.7780     2.4820 ha         1 9JN       0.129000
     28 H3           5.4090    -2.8220     0.8950 ha         1 9JN       0.129000
     29 H5          -4.5100    -0.1140    -2.1200 ha         1 9JN       0.138000
     30 H6           5.6180     2.1060     1.0280 ha         1 9JN       0.131000
     31 H7           3.9390    -1.4920    -0.5620 ha         1 9JN       0.131000
     32 H8          -0.7570     0.6290     1.5180 ha         1 9JN       0.168000
     33 H9          -8.3960    -0.2580    -0.3130 h4         1 9JN       0.018100
     34 H10         -2.7400    -0.4710     2.7590 h4         1 9JN       0.172000
     35 H11         -2.4770    -1.2010    -2.0200 h4         1 9JN       0.170000
     36 H12          5.4970     1.7210    -2.0770 h1         1 9JN       0.044700
     37 H13          4.6620     0.2420    -2.5300 h1         1 9JN       0.044700
     38 H14          3.7970     2.2580    -0.4180 h1         1 9JN       0.052700
     39 H15         -5.1940    -0.5030     3.1920 hn         1 9JN       0.313700
     40 H16          2.1620     0.7950    -1.9310 hn         1 9JN       0.336500
     41 H17          3.6860     2.9400    -3.0190 hn         1 9JN       0.349300
     42 H18          3.9710     1.7580    -4.0910 hn         1 9JN       0.349300
     43 C18          1.6340     0.6200     0.0410 c          1 9JN       0.703700
     44 H4          -6.9870    -0.0920    -2.3290 ha         1 9JN       0.139000
@<TRIPOS>BOND
     1     1     2 ar  
     2     1     3 ar  
     3     1    26 1   
     4     2     6 ar  
     5     2    27 1   
     6     3     7 ar  
     7     3    28 1   
     8     4     5 ar  
     9     4     9 ar  
    10     4    44 1   
    11     5    12 ar  
    12     5    29 1   
    13     6    15 ar  
    14     6    30 1   
    15     7    15 ar  
    16     7    31 1   
    17     8    13 1   
    18     8    16 2   
    19     8    32 1   
    20     9    20 ar  
    21     9    33 1   
    22    10    14 2   
    23    10    21 1   
    24    10    34 1   
    25    11    13 2   
    26    11    25 1   
    27    11    35 1   
    28    12    14 1   
    29    12    17 ar  
    30    13    14 1   
    31    15    19 1   
    32    16    25 1   
    33    16    43 1   
    34    17    20 ar  
    35    17    21 1   
    36    18    19 1   
    37    18    23 1   
    38    18    36 1   
    39    18    37 1   
    40    19    22 1   
    41    19    38 1   
    42    21    39 1   
    43    22    40 1   
    44    22    43 1   
    45    23    41 1   
    46    23    42 1   
    47    24    43 2   
@<TRIPOS>SUBSTRUCTURE
     1 9JN         1 TEMP              0 ****  ****    0 ROOT
