@<TRIPOS>MOLECULE
9JN
   44    47     1     0     0
SMALL
No Charge or Current Charge


@<TRIPOS>ATOM
      1 C1           6.1260    -1.5480     1.7560 ca         1 9JN      -0.105000
      2 C2           6.0940    -0.1770     2.0620 ca         1 9JN      -0.112000
      3 C3           5.4570    -2.0270     0.6180 ca         1 9JN      -0.112000
      4 C4          -6.5220    -1.1110    -1.1790 ca         1 9JN      -0.196000
      5 C5          -5.1500    -0.8100    -1.1260 ca         1 9JN      -0.027000
      6 C6           5.3930     0.7140     1.2310 ca         1 9JN      -0.091500
      7 C7           4.7560    -1.1360    -0.2140 ca         1 9JN      -0.091500
      8 C8          -0.8360     0.5490     0.4530 cc         1 9JN      -0.064000
      9 C9          -7.3120    -0.9380    -0.0270 ca         1 9JN       0.355900
     10 C10         -3.4380     0.4210     1.8610 cd         1 9JN      -0.132100
     11 C11         -1.8570    -0.2310    -1.4840 cd         1 9JN      -0.234000
     12 C12         -4.6490    -0.3460     0.1040 ca         1 9JN      -0.120800
     13 C13         -2.0440     0.1170    -0.1670 cc         1 9JN      -0.036800
     14 C14         -3.3180     0.0540     0.5250 cc         1 9JN      -0.067400
     15 C15          4.7200     0.2420     0.0850 ca         1 9JN      -0.086300
     16 C16          0.2600     0.5350    -0.3740 cd         1 9JN      -0.288600
     17 C17         -5.4950    -0.2040     1.1890 ca         1 9JN       0.365500
     18 C19          4.6310     1.3370    -2.2170 c3         1 9JN       0.133800
     19 C20          3.9610     1.2180    -0.8160 c3         1 9JN       0.162000
     20 N21         -6.8110    -0.4890     1.1480 nb         1 9JN      -0.681000
     21 N22         -4.7820     0.2610     2.2690 na         1 9JN      -0.320400
     22 N23          2.5530     0.8410    -0.9440 ns         1 9JN      -0.492900
     23 N24          3.8560     2.1670    -3.1810 n8         1 9JN      -1.023200
     24 O25          1.8860     1.3200     1.1830 o          1 9JN      -0.589100
     25 S26         -0.1720    -0.0290    -1.9930 ss         1 9JN       0.223000
     26 H1           6.6680    -2.2370     2.4000 ha         1 9JN       0.111000
     27 H2           6.6110     0.1950     2.9440 ha         1 9JN       0.111000
     28 H3           5.4790    -3.0880     0.3800 ha         1 9JN       0.111000
     29 H5          -4.5390    -0.9410    -2.0090 ha         1 9JN       0.120000
     30 H6           5.3730     1.7730     1.4790 ha         1 9JN       0.113000
     31 H7           4.2380    -1.5200    -1.0910 ha         1 9JN       0.113000
     32 H8          -0.7830     0.8630     1.4900 ha         1 9JN       0.150000
     33 H9          -8.3780    -1.1650    -0.0470 h4         1 9JN       0.018100
     34 H10         -2.6830     0.7810     2.5550 h4         1 9JN       0.222000
     35 H11         -2.5620    -0.5910    -2.2130 h4         1 9JN       0.152000
     36 H12          5.6340     1.7690    -2.0990 h1         1 9JN       0.044700
     37 H13          4.7460     0.3330    -2.6500 h1         1 9JN       0.044700
     38 H14          3.9880     2.2140    -0.3540 h1         1 9JN       0.052700
     39 H15         -5.1690     0.4490     3.1860 hn         1 9JN       0.364000
     40 H16          2.2210     0.5900    -1.8650 hn         1 9JN       0.336500
     41 H17          3.8090     3.1330    -2.8330 hn         1 9JN       0.404500
     42 H18          4.3900     2.2560    -4.0550 hn         1 9JN       0.404500
     43 C18          1.6170     0.9370     0.0540 c          1 9JN       0.636700
     44 H4          -6.9740    -1.4740    -2.0980 ha         1 9JN       0.121000
@<TRIPOS>BOND
     1     1     2 ar  
     2     1     3 ar  
     3     1    26 1   
     4     2     6 ar  
     5     2    27 1   
     6     3     7 ar  
     7     3    28 1   
     8     4     5 ar  
     9     4     9 ar  
    10     4    44 1   
    11     5    12 ar  
    12     5    29 1   
    13     6    15 ar  
    14     6    30 1   
    15     7    15 ar  
    16     7    31 1   
    17     8    13 1   
    18     8    16 2   
    19     8    32 1   
    20     9    20 ar  
    21     9    33 1   
    22    10    14 2   
    23    10    21 1   
    24    10    34 1   
    25    11    13 2   
    26    11    25 1   
    27    11    35 1   
    28    12    14 1   
    29    12    17 ar  
    30    13    14 1   
    31    15    19 1   
    32    16    25 1   
    33    16    43 1   
    34    17    20 ar  
    35    17    21 1   
    36    18    19 1   
    37    18    23 1   
    38    18    36 1   
    39    18    37 1   
    40    19    22 1   
    41    19    38 1   
    42    21    39 1   
    43    22    40 1   
    44    22    43 1   
    45    23    41 1   
    46    23    42 1   
    47    24    43 2   
@<TRIPOS>SUBSTRUCTURE
     1 9JN         1 TEMP              0 ****  ****    0 ROOT
