@<TRIPOS>MOLECULE
9JO
   85    90     1     0     0
SMALL
No Charge or Current Charge


@<TRIPOS>ATOM
      1 C4          -1.2040     1.1630    -0.7010 ca         1 9JO       0.315900
      2 C5          -0.8290     2.4530    -1.0830 ca         1 9JO      -0.308300
      3 C6           0.5410     2.7400    -1.1980 ca         1 9JO       0.180900
      4 N1           1.4730     1.8090    -0.9300 nb         1 9JO      -0.250000
      5 N3          -0.2650     0.2370    -0.4160 nb         1 9JO      -0.304000
      6 C2           1.0180     0.6070    -0.5400 ca         1 9JO       0.421900
      7 CAA         -6.0270    -7.3410    -0.4840 c3         1 9JO      -0.078100
      8 CAG         -5.9700     6.3800    -0.1700 ca         1 9JO      -0.095000
      9 CAH         -5.3940     6.1290    -1.4250 ca         1 9JO      -0.106000
     10 CAI         -5.5880     5.6070     0.9380 ca         1 9JO      -0.100000
     11 CAJ         -4.4270     5.1190    -1.5670 ca         1 9JO      -0.085000
     12 CAK          4.1120     0.6390     0.1910 ca         1 9JO      -0.118000
     13 CAL          5.5080     0.5140     0.2980 ca         1 9JO      -0.125000
     14 CAN          3.9490    -1.7060    -0.3910 ca         1 9JO      -0.158000
     15 CAP         -4.3500    -2.6230    -0.9660 c6         1 9JO      -0.086400
     16 CAQ         -3.6530    -2.3480     1.4630 c6         1 9JO      -0.086400
     17 CAR         -4.0750    -1.1210    -1.2370 c6         1 9JO      -0.085400
     18 CAS         -3.3590    -0.8440     1.2310 c6         1 9JO      -0.085400
     19 CAT          9.6050    -1.8830     1.2300 c6         1 9JO       0.161800
     20 CAU          9.9020    -0.3220    -0.6310 c6         1 9JO       0.161800
     21 CAV          8.1350    -1.3900     1.4350 c6         1 9JO       0.186300
     22 CAW          8.4360     0.1970    -0.4560 c6         1 9JO       0.186300
     23 CAX         -1.8830     3.4840    -1.4020 c6         1 9JO       0.190300
     24 CBD         -3.5520     1.9020    -0.4200 c          1 9JO       0.628000
     25 CBE          5.3500    -1.8440    -0.2900 ca         1 9JO      -0.048300
     26 CBF         -4.6240     4.5930     0.7990 ca         1 9JO       0.123000
     27 CBG          3.3230    -0.4700    -0.1670 ca         1 9JO       0.300000
     28 CBJ          6.1420    -0.7200     0.0580 ca         1 9JO       0.235000
     29 CBK         -3.9890     4.3740    -0.4500 ca         1 9JO      -0.039000
     30 CBM         -4.7640    -2.8670     0.5110 c6         1 9JO       0.106700
     31 CBN         -3.0030    -0.5720    -0.2540 c6         1 9JO       0.125700
     32 NBA          1.9300    -0.4030    -0.2720 nu         1 9JO      -0.922900
     33 NBB         -4.9980    -4.2960     0.7480 ns         1 9JO      -0.509900
     34 NBO         10.4930    -0.8320     0.6450 n3         1 9JO      -0.718600
     35 NBP          7.5460    -0.8230     0.1820 nh         1 9JO      -0.779400
     36 NBQ         -3.1320     3.2330    -0.6690 n          1 9JO      -0.244400
     37 NBR         -2.5980     0.8540    -0.5150 n          1 9JO      -0.395300
     38 OAE         -4.7190     1.6750    -0.1280 o          1 9JO      -0.544000
     39 H1           0.8970     3.7210    -1.5100 h4         1 9JO       0.024100
     40 H2          -6.8830    -7.1650    -1.1470 hc         1 9JO       0.042033
     41 H3          -5.1080    -7.1090    -1.0370 hc         1 9JO       0.042033
     42 H4          -6.0100    -8.4060    -0.2220 hc         1 9JO       0.042033
     43 H5           6.8740    -3.1100    -1.2010 hc         1 9JO       0.044367
     44 H6           6.2790    -3.7010     0.3600 hc         1 9JO       0.044367
     45 H7           5.2880    -3.8750    -1.0940 hc         1 9JO       0.044367
     46 H8          11.9490    -2.1330    -0.2140 h1         1 9JO       0.030367
     47 H9          12.5200    -0.4760     0.0980 h1         1 9JO       0.030367
     48 H10         12.3050    -1.6100     1.4500 h1         1 9JO       0.030367
     49 H11         -6.7190     7.1610    -0.0590 ha         1 9JO       0.120000
     50 H12         -5.7070     6.7070    -2.2910 ha         1 9JO       0.122000
     51 H13         -6.0390     5.7940     1.9100 ha         1 9JO       0.132000
     52 H14         -4.0230     4.9140    -2.5560 ha         1 9JO       0.129000
     53 H15          3.6510     1.5960     0.4090 ha         1 9JO       0.149000
     54 H16          6.0980     1.3800     0.5860 ha         1 9JO       0.115000
     55 H17          3.3450    -2.5690    -0.6580 ha         1 9JO       0.109000
     56 H18         -7.0620    -6.7350     1.3060 hc         1 9JO       0.052200
     57 H19         -5.2730    -6.7030     1.4300 hc         1 9JO       0.052200
     58 H20         -5.1430    -2.9750    -1.6390 hc         1 9JO       0.044950
     59 H21         -3.4550    -3.2120    -1.2060 hc         1 9JO       0.044950
     60 H22         -2.7320    -2.9290     1.3150 hc         1 9JO       0.044950
     61 H23         -3.9550    -2.5050     2.5070 hc         1 9JO       0.044950
     62 H24         -3.7330    -0.9880    -2.2720 hc         1 9JO       0.062450
     63 H25         -5.0190    -0.5700    -1.1470 hc         1 9JO       0.062450
     64 H26         -4.2330    -0.2530     1.5340 hc         1 9JO       0.062450
     65 H27         -2.5280    -0.5260     1.8760 hc         1 9JO       0.062450
     66 H28          9.9990    -2.2170     2.2020 h1         1 9JO       0.037950
     67 H29          9.5850    -2.7660     0.5740 h1         1 9JO       0.037950
     68 H30          9.8980    -1.1210    -1.3880 h1         1 9JO       0.037950
     69 H31         10.5160     0.4970    -1.0340 h1         1 9JO       0.037950
     70 H32          7.5290    -2.2340     1.7950 h1         1 9JO       0.042450
     71 H33          8.1260    -0.6250     2.2250 h1         1 9JO       0.042450
     72 H34          8.4590     1.1090     0.1580 h1         1 9JO       0.042450
     73 H35          8.0440     0.4760    -1.4450 h1         1 9JO       0.042450
     74 H36         -1.5060     4.4860    -1.1470 h1         1 9JO       0.055700
     75 H37         -2.0890     3.4660    -2.4820 h1         1 9JO       0.055700
     76 H38         -5.6960    -2.3180     0.7210 h1         1 9JO       0.088700
     77 H39         -2.1390    -1.2170    -0.4570 h1         1 9JO       0.074700
     78 H40          1.4740    -1.3110    -0.2090 hn         1 9JO       0.509000
     79 H41         -4.2440    -4.8440     1.1430 hn         1 9JO       0.304500
     80 Cl1         -4.1420     3.6990     2.2450 cl         1 9JO      -0.191000
     81 CBC         -6.1560    -4.9780     0.4510 c          1 9JO       0.599100
     82 CAB          5.9820    -3.2060    -0.5710 c3         1 9JO      -0.043800
     83 CAC         11.8890    -1.2880     0.4850 c3         1 9JO       0.153100
     84 CAO         -6.1320    -6.4730     0.7880 c3         1 9JO      -0.157400
     85 OAD         -7.1400    -4.4240    -0.0160 o          1 9JO      -0.602100
@<TRIPOS>BOND
     1     1     2 ar  
     2     1     5 ar  
     3     1    37 1   
     4     2     3 ar  
     5     2    23 1   
     6     3     4 ar  
     7     3    39 1   
     8     4     6 ar  
     9     5     6 ar  
    10     6    32 1   
    11     7    40 1   
    12     7    41 1   
    13     7    42 1   
    14     7    84 1   
    15     8     9 ar  
    16     8    10 ar  
    17     8    49 1   
    18     9    11 ar  
    19     9    50 1   
    20    10    26 ar  
    21    10    51 1   
    22    11    29 ar  
    23    11    52 1   
    24    12    13 ar  
    25    12    27 ar  
    26    12    53 1   
    27    13    28 ar  
    28    13    54 1   
    29    14    25 ar  
    30    14    27 ar  
    31    14    55 1   
    32    15    17 1   
    33    15    30 1   
    34    15    58 1   
    35    15    59 1   
    36    16    18 1   
    37    16    30 1   
    38    16    60 1   
    39    16    61 1   
    40    17    31 1   
    41    17    62 1   
    42    17    63 1   
    43    18    31 1   
    44    18    64 1   
    45    18    65 1   
    46    19    21 1   
    47    19    34 1   
    48    19    66 1   
    49    19    67 1   
    50    20    22 1   
    51    20    34 1   
    52    20    68 1   
    53    20    69 1   
    54    21    35 1   
    55    21    70 1   
    56    21    71 1   
    57    22    35 1   
    58    22    72 1   
    59    22    73 1   
    60    23    36 1   
    61    23    74 1   
    62    23    75 1   
    63    24    36 1   
    64    24    37 1   
    65    24    38 2   
    66    25    28 ar  
    67    25    82 1   
    68    26    29 ar  
    69    26    80 1   
    70    27    32 1   
    71    28    35 1   
    72    29    36 1   
    73    30    33 1   
    74    30    76 1   
    75    31    37 1   
    76    31    77 1   
    77    32    78 1   
    78    33    79 1   
    79    33    81 1   
    80    34    83 1   
    81    43    82 1   
    82    44    82 1   
    83    45    82 1   
    84    46    83 1   
    85    47    83 1   
    86    48    83 1   
    87    56    84 1   
    88    57    84 1   
    89    81    84 1   
    90    81    85 2   
@<TRIPOS>SUBSTRUCTURE
     1 9JO         1 TEMP              0 ****  ****    0 ROOT
