@<TRIPOS>MOLECULE
9JO
   85    90     1     0     0
SMALL
bcc


@<TRIPOS>ATOM
      1 C4          -1.1730     1.3110     0.1330 ca         1 9JO       0.644200
      2 C5          -0.8060     2.6600     0.1810 ca         1 9JO      -0.438900
      3 C6           0.5440     2.9080     0.1470 ca         1 9JO       0.509200
      4 N1           1.4680     1.9520     0.1060 nb         1 9JO      -0.776000
      5 N3          -0.2780     0.3480     0.0940 nb         1 9JO      -0.830000
      6 C2           1.0120     0.7070     0.0960 ca         1 9JO       0.947900
      7 CAA         -6.1780    -7.4350    -0.5030 c3         1 9JO      -0.078100
      8 CAG         -5.8750     6.1310    -1.4300 ca         1 9JO      -0.113000
      9 CAH         -4.9000     5.7340    -2.3340 ca         1 9JO      -0.124000
     10 CAI         -5.9390     5.5550    -0.1690 ca         1 9JO      -0.118000
     11 CAJ         -3.9870     4.7540    -1.9750 ca         1 9JO      -0.103000
     12 CAK          4.1220     0.6970     0.0920 ca         1 9JO      -0.136000
     13 CAL          5.4940     0.4940     0.0370 ca         1 9JO      -0.143000
     14 CAN          3.8300    -1.6710    -0.1140 ca         1 9JO      -0.176000
     15 CAP         -3.4470    -2.6590    -0.6720 c6         1 9JO      -0.086400
     16 CAQ         -4.2470    -2.0700     1.6410 c6         1 9JO      -0.086400
     17 CAR         -3.1960    -1.1840    -0.9710 c6         1 9JO      -0.085400
     18 CAS         -4.0200    -0.5890     1.3530 c6         1 9JO      -0.085400
     19 CAT          9.4890    -1.9860     0.6800 c6         1 9JO       0.161800
     20 CAU          9.6410    -0.3480    -1.0390 c6         1 9JO       0.161800
     21 CAV          8.0810    -1.5220     0.9990 c6         1 9JO       0.186300
     22 CAW          8.2390     0.1340    -0.7160 c6         1 9JO       0.186300
     23 CAX         -1.8690     3.6900     0.3170 c6         1 9JO       0.190300
     24 CBD         -3.4620     1.9000    -0.3120 c          1 9JO       0.837500
     25 CBE          5.1990    -1.8770    -0.1860 ca         1 9JO      -0.048300
     26 CBF         -5.0190     4.5790     0.1780 ca         1 9JO       0.031400
     27 CBG          3.2650    -0.3990     0.0240 ca         1 9JO       0.161600
     28 CBJ          6.0610    -0.7690    -0.1010 ca         1 9JO       0.096600
     29 CBK         -4.0370     4.1670    -0.7190 ca         1 9JO       0.053600
     30 CBM         -4.5600    -2.8390     0.3610 c6         1 9JO       0.106700
     31 CBN         -2.9050    -0.4300     0.3240 c6         1 9JO       0.125700
     32 NBA          1.8730    -0.3440     0.0740 nu         1 9JO      -0.729300
     33 NBB         -4.7820    -4.2390     0.6630 ns         1 9JO      -0.576900
     34 NBO         10.2780    -0.8970     0.1400 n3         1 9JO      -0.718600
     35 NBP          7.4540    -0.9670    -0.1920 nh         1 9JO      -0.641000
     36 NBQ         -3.0670     3.2050    -0.3520 n          1 9JO      -0.404000
     37 NBR         -2.5150     0.9750     0.1170 n          1 9JO      -0.462300
     38 OAE         -4.5750     1.5630    -0.6620 o          1 9JO      -0.619500
     39 H1           0.9090     3.9300     0.1660 h4         1 9JO       0.024100
     40 H2          -7.1460    -7.1840    -0.9320 hc         1 9JO       0.042033
     41 H3          -5.4510    -7.4730    -1.3150 hc         1 9JO       0.042033
     42 H4          -6.2520    -8.4350    -0.0780 hc         1 9JO       0.042033
     43 H5           6.6200    -3.2540    -1.0170 hc         1 9JO       0.044367
     44 H6           6.0040    -3.7420     0.5520 hc         1 9JO       0.044367
     45 H7           4.9780    -3.9020    -0.8620 hc         1 9JO       0.044367
     46 H8          11.7190    -2.1010    -0.8760 h1         1 9JO       0.030367
     47 H9          12.2190    -0.4480    -0.4840 h1         1 9JO       0.030367
     48 H10         12.1090    -1.6580     0.7940 h1         1 9JO       0.030367
     49 H11         -6.5930     6.8940    -1.7000 ha         1 9JO       0.138000
     50 H12         -4.8510     6.1830    -3.3170 ha         1 9JO       0.140000
     51 H13         -6.6950     5.8660     0.5380 ha         1 9JO       0.150000
     52 H14         -3.2220     4.4320    -2.6710 ha         1 9JO       0.147000
     53 H15          3.7340     1.6960     0.1930 ha         1 9JO       0.167000
     54 H16          6.1330     1.3660     0.1050 ha         1 9JO       0.133000
     55 H17          3.1730    -2.5310    -0.1920 ha         1 9JO       0.127000
     56 H18         -6.4950    -6.4520     1.3850 hc         1 9JO       0.052200
     57 H19         -4.8120    -6.7300     1.0120 hc         1 9JO       0.052200
     58 H20         -3.7130    -3.1830    -1.5920 hc         1 9JO       0.044950
     59 H21         -2.5300    -3.1260    -0.2950 hc         1 9JO       0.044950
     60 H22         -3.3550    -2.4970     2.1160 hc         1 9JO       0.044950
     61 H23         -5.0690    -2.1870     2.3500 hc         1 9JO       0.044950
     62 H24         -2.3480    -1.0820    -1.6510 hc         1 9JO       0.062450
     63 H25         -4.0670    -0.7590    -1.4730 hc         1 9JO       0.062450
     64 H26         -4.9510    -0.1450     1.0020 hc         1 9JO       0.062450
     65 H27         -3.7410    -0.0730     2.2750 hc         1 9JO       0.062450
     66 H28          9.9610    -2.3480     1.5960 h1         1 9JO       0.037950
     67 H29          9.4370    -2.8390    -0.0200 h1         1 9JO       0.037950
     68 H30          9.5900    -1.0870    -1.8590 h1         1 9JO       0.037950
     69 H31         10.2310     0.4980    -1.4030 h1         1 9JO       0.037950
     70 H32          7.5030    -2.3690     1.3660 h1         1 9JO       0.042450
     71 H33          8.1160    -0.7770     1.8100 h1         1 9JO       0.042450
     72 H34          8.3090     0.9740    -0.0080 h1         1 9JO       0.042450
     73 H35          7.7700     0.5090    -1.6270 h1         1 9JO       0.042450
     74 H36         -2.0790     3.9090     1.3700 h1         1 9JO       0.055700
     75 H37         -1.5630     4.6240    -0.1540 h1         1 9JO       0.055700
     76 H38         -5.4900    -2.4470    -0.0580 h1         1 9JO       0.088700
     77 H39         -2.0170    -0.8890     0.7600 h1         1 9JO       0.074700
     78 H40          1.4060    -1.2370     0.0460 hn         1 9JO       0.453800
     79 H41         -4.1590    -4.6710     1.3280 hn         1 9JO       0.304500
     80 CL1         -5.0870     3.8620     1.7500 cl         1 9JO      -0.099400
     81 CBC         -5.6980    -5.0130     0.0560 c          1 9JO       0.666100
     82 CAB          5.7270    -3.2660    -0.3920 c3         1 9JO      -0.043800
     83 CAC         11.6390    -1.3000    -0.1240 c3         1 9JO       0.153100
     84 CAO         -5.7670    -6.4380     0.5680 c3         1 9JO      -0.157400
     85 OAD         -6.4500    -4.5990    -0.8170 o          1 9JO      -0.602100
@<TRIPOS>BOND
     1     1     2 ar  
     2     1     5 ar  
     3     1    37 1   
     4     2     3 ar  
     5     2    23 1   
     6     3     4 ar  
     7     3    39 1   
     8     4     6 ar  
     9     5     6 ar  
    10     6    32 1   
    11     7    40 1   
    12     7    41 1   
    13     7    42 1   
    14     7    84 1   
    15     8     9 ar  
    16     8    10 ar  
    17     8    49 1   
    18     9    11 ar  
    19     9    50 1   
    20    10    26 ar  
    21    10    51 1   
    22    11    29 ar  
    23    11    52 1   
    24    12    13 ar  
    25    12    27 ar  
    26    12    53 1   
    27    13    28 ar  
    28    13    54 1   
    29    14    25 ar  
    30    14    27 ar  
    31    14    55 1   
    32    15    17 1   
    33    15    30 1   
    34    15    58 1   
    35    15    59 1   
    36    16    18 1   
    37    16    30 1   
    38    16    60 1   
    39    16    61 1   
    40    17    31 1   
    41    17    62 1   
    42    17    63 1   
    43    18    31 1   
    44    18    64 1   
    45    18    65 1   
    46    19    21 1   
    47    19    34 1   
    48    19    66 1   
    49    19    67 1   
    50    20    22 1   
    51    20    34 1   
    52    20    68 1   
    53    20    69 1   
    54    21    35 1   
    55    21    70 1   
    56    21    71 1   
    57    22    35 1   
    58    22    72 1   
    59    22    73 1   
    60    23    36 1   
    61    23    74 1   
    62    23    75 1   
    63    24    36 1   
    64    24    37 1   
    65    24    38 2   
    66    25    28 ar  
    67    25    82 1   
    68    26    29 ar  
    69    26    80 1   
    70    27    32 1   
    71    28    35 1   
    72    29    36 1   
    73    30    33 1   
    74    30    76 1   
    75    31    37 1   
    76    31    77 1   
    77    32    78 1   
    78    33    79 1   
    79    33    81 1   
    80    34    83 1   
    81    43    82 1   
    82    44    82 1   
    83    45    82 1   
    84    46    83 1   
    85    47    83 1   
    86    48    83 1   
    87    56    84 1   
    88    57    84 1   
    89    81    84 1   
    90    81    85 2   
@<TRIPOS>SUBSTRUCTURE
     1 9JO         1 TEMP              0 ****  ****    0 ROOT
