@<TRIPOS>MOLECULE
9JP
   60    63     1     0     0
SMALL
abcg2


@<TRIPOS>ATOM
      1 C4         848.0120   -30.4180   145.2180 ca         1 9JP      -0.139000
      2 N1         845.3300   -33.6420   141.2400 n          1 9JP      -0.312000
      3 C1         849.3810   -31.5870   143.0900 ca         1 9JP      -0.153000
      4 C10        843.3210   -34.3230   143.0820 c          1 9JP       0.584200
      5 C11        843.4180   -33.0020   142.5220 cc         1 9JP      -0.385200
      6 C12        844.4040   -32.7200   141.6470 cd         1 9JP       0.029600
      7 C13        845.1570   -30.6090   145.0130 ca         1 9JP       0.089100
      8 C14        844.9190   -31.7670   145.7180 ca         1 9JP      -0.054300
      9 C15        844.0130   -31.6920   146.8210 ca         1 9JP      -0.031000
     10 C16        843.3790   -30.4570   147.1640 ca         1 9JP      -0.029000
     11 C17        843.6720   -29.3040   146.3890 ca         1 9JP      -0.050000
     12 C18        844.5360   -29.3890   145.3320 ca         1 9JP      -0.104000
     13 C19        843.7210   -32.8280   147.6070 ca         1 9JP      -0.048000
     14 C2         848.0110   -31.3730   142.9940 ca         1 9JP       0.112100
     15 C20        842.8460   -32.7460   148.6710 ca         1 9JP      -0.006000
     16 C21        842.2210   -31.5200   149.0090 ca         1 9JP      -0.070000
     17 C22        842.4920   -30.4060   148.2660 ca         1 9JP      -0.098000
     18 C23        842.5660   -33.9130   149.4440 cg         1 9JP       0.318000
     19 C24        845.5950   -33.0570   145.3530 c3         1 9JP      -0.057800
     20 C25        843.7040   -27.0940   147.4100 c          1 9JP       0.572100
     21 C26        845.1000   -27.4630   147.9090 c3         1 9JP       0.109600
     22 C27        841.7210   -27.7750   146.1760 c3         1 9JP       0.096300
     23 C3         847.3290   -30.7880   144.0700 ca         1 9JP       0.095100
     24 C5         849.3850   -30.6360   145.3060 ca         1 9JP      -0.105000
     25 C6         850.0660   -31.2190   144.2470 ca         1 9JP      -0.098000
     26 C7         847.6520   -32.8070   141.1040 c3         1 9JP       0.137600
     27 C8         846.4190   -33.2480   140.3400 c3         1 9JP       0.106000
     28 C9         845.3190   -34.9350   141.7340 c          1 9JP       0.609000
     29 F1         845.5320   -26.5000   148.8140 f          1 9JP      -0.241000
     30 N2         844.2970   -35.2030   142.6150 ns         1 9JP      -0.469500
     31 N3         843.0570   -28.0550   146.7100 n          1 9JP      -0.253400
     32 N4         842.3320   -34.8520   150.0720 n1         1 9JP      -0.439000
     33 O1         845.9750   -30.6010   143.9000 os         1 9JP      -0.247200
     34 O2         847.2580   -31.6930   141.9070 os         1 9JP      -0.356100
     35 O3         846.1480   -35.7750   141.4170 o          1 9JP      -0.564000
     36 O4         842.4900   -34.7080   143.9010 o          1 9JP      -0.534000
     37 O5         843.2160   -25.9940   147.6400 o          1 9JP      -0.561100
     38 H1         847.4680   -29.9760   146.0420 ha         1 9JP       0.125000
     39 H2         849.9120   -32.0420   142.2650 ha         1 9JP       0.123000
     40 H3         842.7070   -32.2490   142.8240 ha         1 9JP       0.226000
     41 H4         844.5200   -31.7380   141.2150 h4         1 9JP       0.218000
     42 H5         844.7620   -28.5150   144.7360 ha         1 9JP       0.142000
     43 H6         844.1860   -33.7760   147.3820 ha         1 9JP       0.134000
     44 H7         841.5430   -31.4770   149.8490 ha         1 9JP       0.133000
     45 H8         842.0260   -29.4640   148.5210 ha         1 9JP       0.133000
     46 H9         846.4140   -33.2740   146.0440 hc         1 9JP       0.056700
     47 H10        844.8980   -33.8920   145.3960 hc         1 9JP       0.056700
     48 H11        846.0050   -33.0130   144.3490 hc         1 9JP       0.056700
     49 H12        845.1010   -28.4290   148.4140 h1         1 9JP       0.063700
     50 H13        845.8060   -27.4890   147.0780 h1         1 9JP       0.063700
     51 H14        841.1130   -27.2890   146.9360 h1         1 9JP       0.050700
     52 H15        841.7820   -27.1280   145.2990 h1         1 9JP       0.050700
     53 H16        841.2620   -28.7190   145.8920 h1         1 9JP       0.050700
     54 H17        849.9140   -30.3480   146.2060 ha         1 9JP       0.122000
     55 H18        851.1320   -31.3920   144.3110 ha         1 9JP       0.121000
     56 H19        848.0240   -33.6100   141.7430 h1         1 9JP       0.056700
     57 H20        848.4350   -32.5220   140.3970 h1         1 9JP       0.056700
     58 H21        846.0500   -32.4340   139.7190 h1         1 9JP       0.081200
     59 H22        846.6670   -34.0910   139.7010 h1         1 9JP       0.081200
     60 H23        844.2800   -36.1440   142.9880 hn         1 9JP       0.342500
@<TRIPOS>BOND
     1     1    23 ar  
     2     1    24 ar  
     3     1    38 1   
     4     2     6 1   
     5     2    27 1   
     6     2    28 1   
     7     3    14 ar  
     8     3    25 ar  
     9     3    39 1   
    10     4     5 1   
    11     4    30 1   
    12     4    36 2   
    13     5     6 2   
    14     5    40 1   
    15     6    41 1   
    16     7     8 ar  
    17     7    12 ar  
    18     7    33 1   
    19     8     9 ar  
    20     8    19 1   
    21     9    10 ar  
    22     9    13 ar  
    23    10    11 ar  
    24    10    17 ar  
    25    11    12 ar  
    26    11    31 1   
    27    12    42 1   
    28    13    15 ar  
    29    13    43 1   
    30    14    23 ar  
    31    14    34 1   
    32    15    16 ar  
    33    15    18 1   
    34    16    17 ar  
    35    16    44 1   
    36    17    45 1   
    37    18    32 3   
    38    19    46 1   
    39    19    47 1   
    40    19    48 1   
    41    20    21 1   
    42    20    31 1   
    43    20    37 2   
    44    21    29 1   
    45    21    49 1   
    46    21    50 1   
    47    22    31 1   
    48    22    51 1   
    49    22    52 1   
    50    22    53 1   
    51    23    33 1   
    52    24    25 ar  
    53    24    54 1   
    54    25    55 1   
    55    26    27 1   
    56    26    34 1   
    57    26    56 1   
    58    26    57 1   
    59    27    58 1   
    60    27    59 1   
    61    28    30 1   
    62    28    35 2   
    63    30    60 1   
@<TRIPOS>SUBSTRUCTURE
     1 9JP         1 TEMP              0 ****  ****    0 ROOT
