@<TRIPOS>MOLECULE
9JP
   60    63     1     0     0
SMALL
No Charge or Current Charge


@<TRIPOS>ATOM
      1 C4         847.8950   -30.1250   145.2350 ca         1 9JP      -0.139000
      2 N1         845.4900   -33.9470   141.0320 n          1 9JP      -0.312000
      3 C1         849.3300   -31.5430   143.2690 ca         1 9JP      -0.153000
      4 C10        843.3340   -35.0700   142.4820 c          1 9JP       0.584200
      5 C11        843.4370   -33.6390   142.2190 cc         1 9JP      -0.385200
      6 C12        844.4900   -33.1040   141.5140 cd         1 9JP       0.029600
      7 C13        845.0060   -30.4630   145.0380 ca         1 9JP       0.089100
      8 C14        844.6820   -31.6550   145.7270 ca         1 9JP      -0.054300
      9 C15        843.8450   -31.5750   146.8740 ca         1 9JP      -0.031000
     10 C16        843.3060   -30.3210   147.2780 ca         1 9JP      -0.029000
     11 C17        843.5780   -29.1560   146.5180 ca         1 9JP      -0.050000
     12 C18        844.4650   -29.2350   145.4340 ca         1 9JP      -0.104000
     13 C19        843.5480   -32.7280   147.6420 ca         1 9JP      -0.048000
     14 C2         847.9390   -31.3500   143.1200 ca         1 9JP       0.112100
     15 C20        842.7410   -32.6460   148.7910 ca         1 9JP      -0.006000
     16 C21        842.2260   -31.4050   149.1910 ca         1 9JP      -0.070000
     17 C22        842.5080   -30.2530   148.4440 ca         1 9JP      -0.098000
     18 C23        842.4550   -33.8270   149.5590 cg         1 9JP       0.318000
     19 C24        845.2420   -33.0010   145.2460 c3         1 9JP      -0.057800
     20 C25        843.9860   -26.8720   147.4910 c          1 9JP       0.572100
     21 C26        845.4540   -27.2800   147.7670 c3         1 9JP       0.109600
     22 C27        841.6940   -27.5320   146.7620 c3         1 9JP       0.096300
     23 C3         847.2220   -30.6390   144.1070 ca         1 9JP       0.095100
     24 C5         849.2790   -30.3180   145.3750 ca         1 9JP      -0.105000
     25 C6         849.9950   -31.0240   144.3940 ca         1 9JP      -0.098000
     26 C7         847.7820   -32.8720   141.1750 c3         1 9JP       0.137600
     27 C8         846.6380   -33.3820   140.2720 c3         1 9JP       0.106000
     28 C9         845.4350   -35.3390   141.2620 c          1 9JP       0.609000
     29 F1         846.1190   -26.3970   148.5620 f          1 9JP      -0.241000
     30 N2         844.3620   -35.7900   141.9670 ns         1 9JP      -0.469500
     31 N3         843.1290   -27.8540   146.9310 n          1 9JP      -0.253400
     32 N4         842.2300   -34.7920   150.1770 n1         1 9JP      -0.439000
     33 O1         845.8600   -30.4690   143.9600 os         1 9JP      -0.247200
     34 O2         847.2400   -31.8630   142.0450 os         1 9JP      -0.356100
     35 O3         846.2890   -36.1170   140.8690 o          1 9JP      -0.564000
     36 O4         842.4250   -35.5880   143.1030 o          1 9JP      -0.534000
     37 O5         843.5650   -25.7500   147.7660 o          1 9JP      -0.561100
     38 H1         847.3510   -29.5760   145.9990 ha         1 9JP       0.125000
     39 H2         849.9060   -32.0840   142.5230 ha         1 9JP       0.123000
     40 H3         842.6380   -33.0250   142.6200 ha         1 9JP       0.226000
     41 H4         844.6300   -32.0460   141.2970 h4         1 9JP       0.218000
     42 H5         844.7250   -28.3390   144.8770 ha         1 9JP       0.142000
     43 H6         843.9470   -33.7010   147.3690 ha         1 9JP       0.134000
     44 H7         841.6070   -31.3290   150.0840 ha         1 9JP       0.133000
     45 H8         842.0990   -29.3080   148.7900 ha         1 9JP       0.133000
     46 H9         846.0000   -33.3820   145.9400 hc         1 9JP       0.056700
     47 H10        844.4490   -33.7530   145.1590 hc         1 9JP       0.056700
     48 H11        845.7060   -32.9440   144.2560 hc         1 9JP       0.056700
     49 H12        845.4600   -28.2620   148.2550 h1         1 9JP       0.063700
     50 H13        845.9810   -27.3590   146.8090 h1         1 9JP       0.063700
     51 H14        841.2610   -27.2310   147.7250 h1         1 9JP       0.050700
     52 H15        841.5820   -26.7110   146.0430 h1         1 9JP       0.050700
     53 H16        841.1520   -28.4090   146.3860 h1         1 9JP       0.050700
     54 H17        849.7990   -29.9190   146.2450 ha         1 9JP       0.122000
     55 H18        851.0680   -31.1710   144.5070 ha         1 9JP       0.121000
     56 H19        848.1780   -33.7140   141.7570 h1         1 9JP       0.056700
     57 H20        848.5900   -32.4630   140.5540 h1         1 9JP       0.056700
     58 H21        846.2810   -32.5490   139.6540 h1         1 9JP       0.081200
     59 H22        847.0390   -34.1350   139.5820 h1         1 9JP       0.081200
     60 H23        844.3290   -36.7830   142.1280 hn         1 9JP       0.342500
@<TRIPOS>BOND
     1     1    23 ar  
     2     1    24 ar  
     3     1    38 1   
     4     2     6 1   
     5     2    27 1   
     6     2    28 1   
     7     3    14 ar  
     8     3    25 ar  
     9     3    39 1   
    10     4     5 1   
    11     4    30 1   
    12     4    36 2   
    13     5     6 2   
    14     5    40 1   
    15     6    41 1   
    16     7     8 ar  
    17     7    12 ar  
    18     7    33 1   
    19     8     9 ar  
    20     8    19 1   
    21     9    10 ar  
    22     9    13 ar  
    23    10    11 ar  
    24    10    17 ar  
    25    11    12 ar  
    26    11    31 1   
    27    12    42 1   
    28    13    15 ar  
    29    13    43 1   
    30    14    23 ar  
    31    14    34 1   
    32    15    16 ar  
    33    15    18 1   
    34    16    17 ar  
    35    16    44 1   
    36    17    45 1   
    37    18    32 3   
    38    19    46 1   
    39    19    47 1   
    40    19    48 1   
    41    20    21 1   
    42    20    31 1   
    43    20    37 2   
    44    21    29 1   
    45    21    49 1   
    46    21    50 1   
    47    22    31 1   
    48    22    51 1   
    49    22    52 1   
    50    22    53 1   
    51    23    33 1   
    52    24    25 ar  
    53    24    54 1   
    54    25    55 1   
    55    26    27 1   
    56    26    34 1   
    57    26    56 1   
    58    26    57 1   
    59    27    58 1   
    60    27    59 1   
    61    28    30 1   
    62    28    35 2   
    63    30    60 1   
@<TRIPOS>SUBSTRUCTURE
     1 9JP         1 TEMP              0 ****  ****    0 ROOT
