@<TRIPOS>MOLECULE
9JQ
   38    40     1     0     0
SMALL
abcg2


@<TRIPOS>ATOM
      1 C16         -3.3290    -0.4220    -0.0710 cp         1 9JQ      -0.149500
      2 C17         -3.6630     0.9180     0.0310 ca         1 9JQ       0.176000
      3 C18         -4.9370     1.3450     0.4020 ca         1 9JQ       0.091100
      4 C15         -4.3200    -1.3670     0.2060 ca         1 9JQ      -0.109000
      5 C13         -5.9020     0.3860     0.6820 ca         1 9JQ      -0.177000
      6 C11          0.5750    -1.6240    -1.0730 ca         1 9JQ      -0.216000
      7 C12         -0.4860    -2.2280    -1.7060 ca         1 9JQ      -0.042000
      8 C10          0.2950    -0.6090    -0.1350 ca         1 9JQ       0.630900
      9 C01          2.6450    -0.1120     0.2200 ca         1 9JQ       0.313000
     10 C02          3.1230     0.2960    -1.0220 ca         1 9JQ      -0.136000
     11 C03          4.4690     0.1450    -1.3220 ca         1 9JQ      -0.098000
     12 C04          5.3190    -0.3860    -0.3790 ca         1 9JQ       0.063000
     13 F01          6.6300    -0.5280    -0.6540 f          1 9JQ      -0.185000
     14 C05          4.8700    -0.7880     0.8760 ca         1 9JQ       0.121100
     15 O01          5.6820    -1.3070     1.8130 oh         1 9JQ      -0.524100
     16 C06          3.5160    -0.6550     1.1580 ca         1 9JQ      -0.141000
     17 N01          1.2820     0.0450     0.5530 nh         1 9JQ      -0.829100
     18 C07          0.9190     0.9830     1.6010 c3         1 9JQ       0.234100
     19 C08         -1.7920    -1.8420    -1.4130 ca         1 9JQ      -0.203000
     20 C09         -1.9680    -0.8530    -0.4600 cp         1 9JQ       0.449500
     21 N02         -0.9510    -0.2560     0.1590 nb         1 9JQ      -0.734000
     22 C14         -5.5900    -0.9640     0.5800 ca         1 9JQ      -0.091000
     23 F02         -2.7640     1.8650    -0.2700 f          1 9JQ      -0.153000
     24 O02         -5.1510     2.6700     0.4590 oh         1 9JQ      -0.516100
     25 H1          -4.0800    -2.4200     0.1440 ha         1 9JQ       0.123000
     26 H2          -6.8970     0.6960     0.9770 ha         1 9JQ       0.116000
     27 H3           1.5870    -1.9310    -1.2890 ha         1 9JQ       0.130000
     28 H4          -0.3030    -3.0080    -2.4340 ha         1 9JQ       0.116000
     29 H5           2.4530     0.7330    -1.7500 ha         1 9JQ       0.135000
     30 H6           4.8600     0.4570    -2.2820 ha         1 9JQ       0.135000
     31 H7           6.5900    -1.3690     1.4930 ho         1 9JQ       0.480000
     32 H8           3.1450    -0.9820     2.1210 ha         1 9JQ       0.142000
     33 H9           0.3350     0.5030     2.3860 h1         1 9JQ       0.045700
     34 H10          1.8300     1.3780     2.0420 h1         1 9JQ       0.045700
     35 H11          0.3350     1.8170     1.2090 h1         1 9JQ       0.045700
     36 H12         -2.6360    -2.2930    -1.9160 ha         1 9JQ       0.127000
     37 H13         -6.3480    -1.7020     0.8030 ha         1 9JQ       0.118000
     38 H14         -6.0620     2.8500     0.7150 ho         1 9JQ       0.466000
@<TRIPOS>BOND
     1     1     2 ar  
     2     1     4 ar  
     3     1    20 1   
     4     2     3 ar  
     5     2    23 1   
     6     3     5 ar  
     7     3    24 1   
     8     4    22 ar  
     9     4    25 1   
    10     5    22 ar  
    11     5    26 1   
    12     6     7 ar  
    13     6     8 ar  
    14     6    27 1   
    15     7    19 ar  
    16     7    28 1   
    17     8    17 1   
    18     8    21 ar  
    19     9    10 ar  
    20     9    16 ar  
    21     9    17 1   
    22    10    11 ar  
    23    10    29 1   
    24    11    12 ar  
    25    11    30 1   
    26    12    13 1   
    27    12    14 ar  
    28    14    15 1   
    29    14    16 ar  
    30    15    31 1   
    31    16    32 1   
    32    17    18 1   
    33    18    33 1   
    34    18    34 1   
    35    18    35 1   
    36    19    20 ar  
    37    19    36 1   
    38    20    21 ar  
    39    22    37 1   
    40    24    38 1   
@<TRIPOS>SUBSTRUCTURE
     1 9JQ         1 TEMP              0 ****  ****    0 ROOT
