@<TRIPOS>MOLECULE
9JQ
   38    40     1     0     0
SMALL
No Charge or Current Charge


@<TRIPOS>ATOM
      1 C16         -3.3480    -0.3560    -0.1210 cp         1 9JQ      -0.149500
      2 C17         -3.6220     1.0360    -0.0010 ca         1 9JQ       0.176000
      3 C18         -4.9300     1.4980     0.2810 ca         1 9JQ       0.091100
      4 C15         -4.4330    -1.2570     0.0410 ca         1 9JQ      -0.109000
      5 C13         -5.9780     0.5780     0.4450 ca         1 9JQ      -0.177000
      6 C11          0.5650    -1.8510    -0.8640 ca         1 9JQ      -0.216000
      7 C12         -0.4960    -2.4480    -1.5560 ca         1 9JQ      -0.042000
      8 C10          0.3020    -0.7910     0.0240 ca         1 9JQ       0.630900
      9 C01          2.6640    -0.1670     0.3110 ca         1 9JQ       0.313000
     10 C02          2.9780     0.1940    -1.0140 ca         1 9JQ      -0.136000
     11 C03          4.3120     0.1850    -1.4630 ca         1 9JQ      -0.098000
     12 C04          5.3390    -0.1840    -0.5810 ca         1 9JQ       0.063000
     13 F01          6.6200    -0.1920    -1.0160 f          1 9JQ      -0.185000
     14 C05          5.0360    -0.5440     0.7470 ca         1 9JQ       0.121100
     15 O01          6.0290    -0.9080     1.6150 oh         1 9JQ      -0.524100
     16 C06          3.7030    -0.5330     1.1870 ca         1 9JQ      -0.141000
     17 N01          1.3250    -0.1530     0.7560 nh         1 9JQ      -0.829100
     18 C07          0.9910     0.6130     1.9860 c3         1 9JQ       0.234100
     19 C08         -1.7850    -1.9510    -1.3230 ca         1 9JQ      -0.203000
     20 C09         -1.9770    -0.8820    -0.4170 cp         1 9JQ       0.449500
     21 N02         -0.9400    -0.3320     0.2470 nb         1 9JQ      -0.734000
     22 C14         -5.7290    -0.7970     0.3230 ca         1 9JQ      -0.091000
     23 F02         -2.6390     1.9500    -0.1950 f          1 9JQ      -0.153000
     24 O02         -5.1950     2.8380     0.3900 oh         1 9JQ      -0.516100
     25 H1          -4.2640    -2.3300    -0.0380 ha         1 9JQ       0.123000
     26 H2          -6.9870     0.9210     0.6620 ha         1 9JQ       0.116000
     27 H3           1.5760    -2.2180    -1.0060 ha         1 9JQ       0.130000
     28 H4          -0.3260    -3.2700    -2.2490 ha         1 9JQ       0.116000
     29 H5           2.1850     0.4910    -1.6960 ha         1 9JQ       0.135000
     30 H6           4.5480     0.4660    -2.4870 ha         1 9JQ       0.135000
     31 H7           6.8850    -0.8570     1.1360 ho         1 9JQ       0.480000
     32 H8           3.4740    -0.8200     2.2080 ha         1 9JQ       0.142000
     33 H9           0.4690    -0.0260     2.7100 h1         1 9JQ       0.045700
     34 H10          1.8970     0.9960     2.4730 h1         1 9JQ       0.045700
     35 H11          0.3590     1.4800     1.7470 h1         1 9JQ       0.045700
     36 H12         -2.6350    -2.3830    -1.8430 ha         1 9JQ       0.127000
     37 H13         -6.5420    -1.5100     0.4490 ha         1 9JQ       0.118000
     38 H14         -6.1500     2.9560     0.5840 ho         1 9JQ       0.466000
@<TRIPOS>BOND
     1     1     2 ar  
     2     1     4 ar  
     3     1    20 1   
     4     2     3 ar  
     5     2    23 1   
     6     3     5 ar  
     7     3    24 1   
     8     4    22 ar  
     9     4    25 1   
    10     5    22 ar  
    11     5    26 1   
    12     6     7 ar  
    13     6     8 ar  
    14     6    27 1   
    15     7    19 ar  
    16     7    28 1   
    17     8    17 1   
    18     8    21 ar  
    19     9    10 ar  
    20     9    16 ar  
    21     9    17 1   
    22    10    11 ar  
    23    10    29 1   
    24    11    12 ar  
    25    11    30 1   
    26    12    13 1   
    27    12    14 ar  
    28    14    15 1   
    29    14    16 ar  
    30    15    31 1   
    31    16    32 1   
    32    17    18 1   
    33    18    33 1   
    34    18    34 1   
    35    18    35 1   
    36    19    20 ar  
    37    19    36 1   
    38    20    21 ar  
    39    22    37 1   
    40    24    38 1   
@<TRIPOS>SUBSTRUCTURE
     1 9JQ         1 TEMP              0 ****  ****    0 ROOT
