@<TRIPOS>MOLECULE
9JR
   60    63     1     0     0
SMALL
bcc


@<TRIPOS>ATOM
      1 N            0.2900    -1.8100    -0.6030 nh         1 9JR      -0.762300
      2 C            1.5650    -1.5840    -0.1990 ca         1 9JR       0.739200
      3 O           -0.3120    -5.0700     0.6520 o          1 9JR      -0.624500
      4 C1           2.1970    -2.5750     0.5550 ca         1 9JR      -0.346000
      5 C10         -0.4420    -0.8470    -1.4060 c3         1 9JR       0.271100
      6 C11         -1.2910     0.0910    -0.5820 ca         1 9JR      -0.131300
      7 C12         -2.8880     1.7660     0.9750 ca         1 9JR      -0.097000
      8 C13         -3.4600     0.6580     0.3570 ca         1 9JR      -0.090300
      9 C14         -1.5360     2.0350     0.8170 ca         1 9JR      -0.140000
     10 C15         -2.6510    -0.1610    -0.4230 ca         1 9JR      -0.121000
     11 C16         -0.7360     1.2010     0.0470 ca         1 9JR      -0.101000
     12 C17         -4.9180     0.3290     0.5490 c3         1 9JR       0.217100
     13 C18         -7.1600     1.2130     0.7560 c5         1 9JR       0.157800
     14 C19         -7.8990     2.4610     0.2740 c5         1 9JR      -0.079900
     15 C2          -0.5110    -2.7280     0.1820 c6         1 9JR       0.130800
     16 C20         -5.8190     2.0550    -0.9120 c5         1 9JR       0.157800
     17 C21         -7.0000     3.0250    -0.8480 c5         1 9JR      -0.079900
     18 C3           0.2420    -3.9910     0.5420 c          1 9JR       0.703500
     19 C4           3.4240    -0.3230    -0.0880 ca         1 9JR       0.943300
     20 C5           3.4770    -2.2940     1.0210 ca         1 9JR       0.729200
     21 C6           5.3380     1.0830    -0.0460 c3         1 9JR       0.155400
     22 C7           5.7190     2.4570    -0.5550 c3         1 9JR      -0.086400
     23 C8           7.1450     2.8220    -0.1590 c3         1 9JR      -0.073400
     24 C9           7.5440     4.2130    -0.6290 c3         1 9JR      -0.088100
     25 N1           1.5590    -3.8070     0.7570 ns         1 9JR      -0.448100
     26 N2           2.1860    -0.4560    -0.5340 nb         1 9JR      -0.805000
     27 N3           4.0930    -1.1530     0.6810 nb         1 9JR      -0.870000
     28 N4           4.1790    -3.1750     1.7750 nv         1 9JR      -0.942500
     29 N5          -5.7730     1.4830     0.4220 n3         1 9JR      -0.718600
     30 O1           4.0040     0.8100    -0.4730 os         1 9JR      -0.421100
     31 H1           0.2750    -0.2910    -2.0070 h1         1 9JR       0.073700
     32 H2          -1.0780    -1.4090    -2.0940 h1         1 9JR       0.073700
     33 H3          -3.5080     2.4250     1.5700 ha         1 9JR       0.146000
     34 H4          -1.1010     2.9030     1.2960 ha         1 9JR       0.133000
     35 H5          -3.0940    -1.0160    -0.9240 ha         1 9JR       0.123000
     36 H6           0.3190     1.4130    -0.0740 ha         1 9JR       0.153000
     37 H7          -5.2040    -0.4740    -0.1530 h1         1 9JR       0.036700
     38 H8          -5.0560    -0.0840     1.5540 h1         1 9JR       0.036700
     39 H9          -7.2750     1.0270     1.8260 h1         1 9JR       0.036950
     40 H10         -7.5360     0.3210     0.2270 h1         1 9JR       0.036950
     41 H11         -8.9020     2.2180    -0.0750 hc         1 9JR       0.046700
     42 H12         -8.0060     3.1840     1.0830 hc         1 9JR       0.046700
     43 H13         -0.8750    -2.2630     1.1100 h1         1 9JR       0.075700
     44 H14         -1.3880    -3.0170    -0.3960 h1         1 9JR       0.075700
     45 H15         -6.0020     1.2790    -1.6760 h1         1 9JR       0.036950
     46 H16         -4.8770     2.5430    -1.1680 h1         1 9JR       0.036950
     47 H17         -7.5150     3.0880    -1.8060 hc         1 9JR       0.046700
     48 H18         -6.6590     4.0310    -0.6000 hc         1 9JR       0.046700
     49 H19          6.0190     0.3220    -0.4390 h1         1 9JR       0.047200
     50 H20          5.4000     1.0460     1.0440 h1         1 9JR       0.047200
     51 H21          5.6230     2.4870    -1.6450 hc         1 9JR       0.055700
     52 H22          5.0250     3.2010    -0.1530 hc         1 9JR       0.055700
     53 H23          7.2490     2.7610     0.9280 hc         1 9JR       0.038700
     54 H24          7.8380     2.0840    -0.5740 hc         1 9JR       0.038700
     55 H25          6.9000     4.9780    -0.1920 hc         1 9JR       0.034367
     56 H26          8.5720     4.4460    -0.3480 hc         1 9JR       0.034367
     57 H27          7.4710     4.3010    -1.7140 hc         1 9JR       0.034367
     58 H28          2.1190    -4.6300     0.9330 hn         1 9JR       0.326500
     59 H29          3.6790    -3.8260     2.3590 hn         1 9JR       0.424300
     60 H30          5.0290    -2.8250     2.1860 hn         1 9JR       0.424300
@<TRIPOS>BOND
     1     1     2 1   
     2     1     5 1   
     3     1    15 1   
     4     2     4 ar  
     5     2    26 ar  
     6     3    18 2   
     7     4    20 ar  
     8     4    25 1   
     9     5     6 1   
    10     5    31 1   
    11     5    32 1   
    12     6    10 ar  
    13     6    11 ar  
    14     7     8 ar  
    15     7     9 ar  
    16     7    33 1   
    17     8    10 ar  
    18     8    12 1   
    19     9    11 ar  
    20     9    34 1   
    21    10    35 1   
    22    11    36 1   
    23    12    29 1   
    24    12    37 1   
    25    12    38 1   
    26    13    14 1   
    27    13    29 1   
    28    13    39 1   
    29    13    40 1   
    30    14    17 1   
    31    14    41 1   
    32    14    42 1   
    33    15    18 1   
    34    15    43 1   
    35    15    44 1   
    36    16    17 1   
    37    16    29 1   
    38    16    45 1   
    39    16    46 1   
    40    17    47 1   
    41    17    48 1   
    42    18    25 1   
    43    19    26 ar  
    44    19    27 ar  
    45    19    30 1   
    46    20    27 ar  
    47    20    28 1   
    48    21    22 1   
    49    21    30 1   
    50    21    49 1   
    51    21    50 1   
    52    22    23 1   
    53    22    51 1   
    54    22    52 1   
    55    23    24 1   
    56    23    53 1   
    57    23    54 1   
    58    24    55 1   
    59    24    56 1   
    60    24    57 1   
    61    25    58 1   
    62    28    59 1   
    63    28    60 1   
@<TRIPOS>SUBSTRUCTURE
     1 9JR         1 TEMP              0 ****  ****    0 ROOT
