@<TRIPOS>MOLECULE
9JR
   60    63     1     0     0
SMALL
No Charge or Current Charge


@<TRIPOS>ATOM
      1 N            0.1280    -1.7140    -0.7910 nh         1 9JR      -0.762300
      2 C            1.4540    -1.5860    -0.2990 ca         1 9JR       0.410900
      3 O           -0.5060    -5.1860     0.5160 o          1 9JR      -0.549000
      4 C1           2.0460    -2.6240     0.4400 ca         1 9JR      -0.308000
      5 C10         -0.5750    -0.6140    -1.4990 c3         1 9JR       0.271100
      6 C11         -1.2950     0.3490    -0.5600 ca         1 9JR      -0.131300
      7 C12         -2.6360     2.1240     1.1730 ca         1 9JR      -0.079000
      8 C13         -3.2880     0.9590     0.7270 ca         1 9JR      -0.090300
      9 C14         -1.3230     2.4030     0.7570 ca         1 9JR      -0.122000
     10 C15         -2.6140     0.0770    -0.1400 ca         1 9JR      -0.103000
     11 C16         -0.6550     1.5190    -0.1070 ca         1 9JR      -0.083000
     12 C17         -4.7140     0.6600     1.1800 c3         1 9JR       0.217100
     13 C18         -7.1100     1.3260     0.9910 c5         1 9JR       0.157800
     14 C19         -7.8770     2.3340     0.0950 c5         1 9JR      -0.079900
     15 C2          -0.6780    -2.9540    -0.4800 c6         1 9JR       0.130800
     16 C20         -5.8160     1.4670    -0.9150 c5         1 9JR       0.157800
     17 C21         -7.0130     2.4110    -1.2050 c5         1 9JR      -0.079900
     18 C3           0.0330    -4.1070     0.2850 c          1 9JR       0.561000
     19 C4           3.3780    -0.3430    -0.0900 ca         1 9JR       0.417300
     20 C5           3.3510    -2.4100     0.8870 ca         1 9JR       0.400900
     21 C6           5.3710     1.0880     0.0750 c3         1 9JR       0.178600
     22 C7           5.7770     2.4890    -0.4230 c3         1 9JR      -0.086400
     23 C8           7.2080     2.8880    -0.0000 c3         1 9JR      -0.073400
     24 C9           7.6150     4.2890    -0.4970 c3         1 9JR      -0.088100
     25 N1           1.3240    -3.8250     0.6880 ns         1 9JR      -0.122000
     26 N2           2.1240    -0.4520    -0.5630 nb         1 9JR      -0.279000
     27 N3           4.0200    -1.2870     0.6320 nb         1 9JR      -0.344000
     28 N4           4.0350    -3.3200     1.6210 nv         1 9JR      -1.052900
     29 N5          -5.7180     1.5500     0.5570 n3         1 9JR      -0.718600
     30 O1           4.0280     0.8370    -0.3800 os         1 9JR      -0.444300
     31 H1           0.1250    -0.0500    -2.1320 h1         1 9JR       0.073700
     32 H2          -1.3120    -1.0380    -2.1950 h1         1 9JR       0.073700
     33 H3          -3.1510     2.8140     1.8380 ha         1 9JR       0.128000
     34 H4          -0.8240     3.3060     1.1020 ha         1 9JR       0.115000
     35 H5          -3.1160    -0.8220    -0.4900 ha         1 9JR       0.105000
     36 H6           0.3610     1.7460    -0.4240 ha         1 9JR       0.135000
     37 H7          -4.9510    -0.3890     0.9550 h1         1 9JR       0.036700
     38 H8          -4.7560     0.7670     2.2730 h1         1 9JR       0.036700
     39 H9          -7.2570     1.5290     2.0610 h1         1 9JR       0.036950
     40 H10         -7.4300     0.2940     0.7910 h1         1 9JR       0.036950
     41 H11         -8.9030     2.0030    -0.1010 hc         1 9JR       0.046700
     42 H12         -7.9410     3.3160     0.5780 hc         1 9JR       0.046700
     43 H13         -1.5480    -2.6880     0.1360 h1         1 9JR       0.075700
     44 H14         -1.0510    -3.4020    -1.4120 h1         1 9JR       0.075700
     45 H15         -6.0330     0.4400    -1.2430 h1         1 9JR       0.036950
     46 H16         -4.8990     1.7990    -1.4220 h1         1 9JR       0.036950
     47 H17         -7.5680     2.0970    -2.0960 hc         1 9JR       0.046700
     48 H18         -6.6700     3.4370    -1.3830 hc         1 9JR       0.046700
     49 H19          6.0660     0.3400    -0.3280 h1         1 9JR       0.047200
     50 H20          5.4230     1.0590     1.1720 h1         1 9JR       0.047200
     51 H21          5.7020     2.5140    -1.5170 hc         1 9JR       0.055700
     52 H22          5.0650     3.2270    -0.0320 hc         1 9JR       0.055700
     53 H23          7.2850     2.8620     1.0940 hc         1 9JR       0.038700
     54 H24          7.9210     2.1500    -0.3890 hc         1 9JR       0.038700
     55 H25          6.9410     5.0550    -0.0960 hc         1 9JR       0.034367
     56 H26          8.6360     4.5270    -0.1730 hc         1 9JR       0.034367
     57 H27          7.5830     4.3370    -1.5920 hc         1 9JR       0.034367
     58 H28          1.8100    -4.5640     1.1780 hn         1 9JR       0.160000
     59 H29          3.5190    -4.0410     2.1140 hn         1 9JR       0.479500
     60 H30          4.9110    -3.0260     2.0450 hn         1 9JR       0.479500
@<TRIPOS>BOND
     1     1     2 1   
     2     1     5 1   
     3     1    15 1   
     4     2     4 ar  
     5     2    26 ar  
     6     3    18 2   
     7     4    20 ar  
     8     4    25 1   
     9     5     6 1   
    10     5    31 1   
    11     5    32 1   
    12     6    10 ar  
    13     6    11 ar  
    14     7     8 ar  
    15     7     9 ar  
    16     7    33 1   
    17     8    10 ar  
    18     8    12 1   
    19     9    11 ar  
    20     9    34 1   
    21    10    35 1   
    22    11    36 1   
    23    12    29 1   
    24    12    37 1   
    25    12    38 1   
    26    13    14 1   
    27    13    29 1   
    28    13    39 1   
    29    13    40 1   
    30    14    17 1   
    31    14    41 1   
    32    14    42 1   
    33    15    18 1   
    34    15    43 1   
    35    15    44 1   
    36    16    17 1   
    37    16    29 1   
    38    16    45 1   
    39    16    46 1   
    40    17    47 1   
    41    17    48 1   
    42    18    25 1   
    43    19    26 ar  
    44    19    27 ar  
    45    19    30 1   
    46    20    27 ar  
    47    20    28 1   
    48    21    22 1   
    49    21    30 1   
    50    21    49 1   
    51    21    50 1   
    52    22    23 1   
    53    22    51 1   
    54    22    52 1   
    55    23    24 1   
    56    23    53 1   
    57    23    54 1   
    58    24    55 1   
    59    24    56 1   
    60    24    57 1   
    61    25    58 1   
    62    28    59 1   
    63    28    60 1   
@<TRIPOS>SUBSTRUCTURE
     1 9JR         1 TEMP              0 ****  ****    0 ROOT
