@<TRIPOS>MOLECULE
9JS
   41    43     1     0     0
SMALL
bcc


@<TRIPOS>ATOM
      1 C4           4.6090     0.8320     0.1680 ca         1 9JS      -0.248000
      2 C14         -6.0790    -0.0240     0.1670 ca         1 9JS      -0.186600
      3 C5           5.9810     1.0490     0.2490 ca         1 9JS       0.164100
      4 C6           6.9050     0.0180     0.0620 ca         1 9JS      -0.131300
      5 C11         -3.3050    -0.4600    -0.0450 ca         1 9JS       0.195600
      6 C7           8.3790     0.2730     0.1540 c3         1 9JS      -0.027800
      7 C8           1.6680    -0.0040    -0.0480 cc         1 9JS       0.585200
      8 C9          -0.8540    -0.0070    -0.0300 cc         1 9JS       0.574200
      9 C10          0.4060    -0.7550    -0.2040 c          1 9JS       0.311500
     10 C12         -4.2150    -1.5150    -0.1930 ca         1 9JS      -0.185000
     11 C13         -5.5730    -1.3000    -0.0900 ca         1 9JS      -0.057000
     12 N2           1.7220     1.2640     0.2130 nd         1 9JS      -0.688200
     13 C3           4.1240    -0.4470    -0.1040 ca         1 9JS       0.203600
     14 N3          -0.9120     1.2590     0.2320 nd         1 9JS      -0.673200
     15 C1           6.3910    -1.2450    -0.2110 ca         1 9JS      -0.066000
     16 C2           5.0320    -1.4910    -0.2950 ca         1 9JS      -0.219000
     17 O1           6.4780     2.2760     0.5120 oh         1 9JS      -0.495100
     18 S1           0.4040     2.1840     0.4110 ss         1 9JS       0.560000
     19 O2           0.4050    -1.9480    -0.4600 o          1 9JS      -0.525100
     20 N4          -1.9650    -0.7780    -0.1690 nu         1 9JS      -0.691600
     21 C15         -5.1690     1.0160     0.3260 ca         1 9JS      -0.057000
     22 C16         -3.8030     0.8200     0.2170 ca         1 9JS      -0.185000
     23 O3          -7.9140     1.3200     0.8240 o          1 9JS      -0.609100
     24 N5          -8.3890    -0.6510    -0.1490 nt         1 9JS      -0.672000
     25 H3           3.9290     1.6590     0.3140 ha         1 9JS       0.165000
     26 H5           8.7090     1.0280    -0.5620 hc         1 9JS       0.042033
     27 H6           8.6690     0.6280     1.1450 hc         1 9JS       0.042033
     28 H7           8.9410    -0.6380    -0.0460 hc         1 9JS       0.042033
     29 H10         -3.8490    -2.5170    -0.3860 ha         1 9JS       0.150500
     30 H11         -6.2260    -2.1560    -0.1930 ha         1 9JS       0.142000
     31 H8           2.5780    -1.7380    -0.4080 hn         1 9JS       0.463800
     32 H1           7.0810    -2.0660    -0.3620 ha         1 9JS       0.133000
     33 H2           4.6750    -2.4900    -0.5100 ha         1 9JS       0.133000
     34 H4           5.7630     2.9110     0.6310 ho         1 9JS       0.427000
     35 H9          -1.7670    -1.7480    -0.3730 hn         1 9JS       0.463800
     36 H12         -5.5310     2.0140     0.5340 ha         1 9JS       0.142000
     37 H13         -3.1380     1.6590     0.3360 ha         1 9JS       0.150500
     38 H14         -8.1000    -1.4470    -0.6900 hn         1 9JS       0.312500
     39 H15         -9.3800    -0.4790    -0.0930 hn         1 9JS       0.312500
     40 N1           2.7740    -0.7680    -0.2030 nu         1 9JS      -0.689600
     41 C17         -7.5330     0.2760     0.3090 c          1 9JS       0.689700
@<TRIPOS>BOND
     1     1     3 ar  
     2     1    13 ar  
     3     1    25 1   
     4     2    11 ar  
     5     2    21 ar  
     6     2    41 1   
     7     3     4 ar  
     8     3    17 1   
     9     4     6 1   
    10     4    15 ar  
    11     5    10 ar  
    12     5    20 1   
    13     5    22 ar  
    14     6    26 1   
    15     6    27 1   
    16     6    28 1   
    17     7     9 1   
    18     7    12 2   
    19     7    40 1   
    20     8     9 1   
    21     8    14 2   
    22     8    20 1   
    23     9    19 2   
    24    10    11 ar  
    25    10    29 1   
    26    11    30 1   
    27    12    18 1   
    28    13    16 ar  
    29    13    40 1   
    30    14    18 1   
    31    15    16 ar  
    32    15    32 1   
    33    16    33 1   
    34    17    34 1   
    35    20    35 1   
    36    21    22 ar  
    37    21    36 1   
    38    22    37 1   
    39    23    41 2   
    40    24    38 1   
    41    24    39 1   
    42    24    41 1   
    43    31    40 1   
@<TRIPOS>SUBSTRUCTURE
     1 9JS         1 TEMP              0 ****  ****    0 ROOT
