@<TRIPOS>MOLECULE
9JS
   41    43     1     0     0
SMALL
No Charge or Current Charge


@<TRIPOS>ATOM
      1 C4           4.7060     0.7610     0.5900 ca         1 9JS      -0.230000
      2 C14         -6.1160     0.0480    -0.0030 ca         1 9JS      -0.186600
      3 C5           6.0660     1.0440     0.3920 ca         1 9JS       0.164100
      4 C6           6.9120     0.0900    -0.2110 ca         1 9JS      -0.131300
      5 C11         -3.3450    -0.5050     0.2860 ca         1 9JS       0.334000
      6 C7           8.3940     0.3810    -0.4320 c3         1 9JS      -0.027800
      7 C8           1.6430    -0.1130     0.1890 cc         1 9JS       0.585200
      8 C9          -0.8170    -0.1290     0.2180 cc         1 9JS       0.574200
      9 C10          0.4200    -0.9040     0.4350 c          1 9JS       0.311500
     10 C12         -4.2060    -1.4620    -0.2690 ca         1 9JS      -0.167000
     11 C13         -5.5790    -1.1930    -0.4200 ca         1 9JS      -0.039000
     12 N2           1.7650     1.1300    -0.2130 nd         1 9JS      -0.688200
     13 C3           4.1720    -0.4690     0.1780 ca         1 9JS       0.342000
     14 N3          -0.9640     1.1120    -0.1810 nd         1 9JS      -0.673200
     15 C1           6.3760    -1.1510    -0.6060 ca         1 9JS      -0.048000
     16 C2           5.0130    -1.4260    -0.4050 ca         1 9JS      -0.201000
     17 O1           6.5620     2.2500     0.7960 oh         1 9JS      -0.534100
     18 S1           0.3900     2.0520    -0.5040 ss         1 9JS       0.560000
     19 O2           0.4320    -2.0950     0.7830 o          1 9JS      -0.525100
     20 N4          -1.9950    -0.8190     0.4400 nu         1 9JS      -0.885200
     21 C15         -5.2440     1.0000     0.5710 ca         1 9JS      -0.039000
     22 C16         -3.8740     0.7210     0.7160 ca         1 9JS      -0.167000
     23 O3          -8.0610     1.4400     0.2120 o          1 9JS      -0.609100
     24 N5          -8.3990    -0.5500    -0.6980 nt         1 9JS      -0.605000
     25 H3           4.0620     1.4900     1.0690 ha         1 9JS       0.147000
     26 H5           8.5310     1.2620    -1.0690 hc         1 9JS       0.042033
     27 H6           8.9040     0.5720     0.5200 hc         1 9JS       0.042033
     28 H7           8.9080    -0.4580    -0.9170 hc         1 9JS       0.042033
     29 H10         -3.8120    -2.4210    -0.5960 ha         1 9JS       0.132500
     30 H11         -6.2090    -1.9610    -0.8630 ha         1 9JS       0.124000
     31 H8           2.6550    -1.7850     0.5020 hn         1 9JS       0.519000
     32 H1           7.0120    -1.9030    -1.0680 ha         1 9JS       0.115000
     33 H2           4.6110    -2.3870    -0.7140 ha         1 9JS       0.115000
     34 H4           5.8280     2.7750     1.1780 ho         1 9JS       0.466000
     35 H9          -1.8040    -1.8140     0.5570 hn         1 9JS       0.519000
     36 H12         -5.6260     1.9610     0.9110 ha         1 9JS       0.124000
     37 H13         -3.2260     1.4620     1.1750 ha         1 9JS       0.132500
     38 H14         -8.0300    -1.4360    -1.0040 hn         1 9JS       0.312500
     39 H15         -9.3810    -0.3420    -0.7990 hn         1 9JS       0.312500
     40 N1           2.8340    -0.7880     0.3830 nu         1 9JS      -0.883200
     41 C17         -7.5850     0.3760    -0.1480 c          1 9JS       0.622700
@<TRIPOS>BOND
     1     1     3 ar  
     2     1    13 ar  
     3     1    25 1   
     4     2    11 ar  
     5     2    21 ar  
     6     2    41 1   
     7     3     4 ar  
     8     3    17 1   
     9     4     6 1   
    10     4    15 ar  
    11     5    10 ar  
    12     5    20 1   
    13     5    22 ar  
    14     6    26 1   
    15     6    27 1   
    16     6    28 1   
    17     7     9 1   
    18     7    12 2   
    19     7    40 1   
    20     8     9 1   
    21     8    14 2   
    22     8    20 1   
    23     9    19 2   
    24    10    11 ar  
    25    10    29 1   
    26    11    30 1   
    27    12    18 1   
    28    13    16 ar  
    29    13    40 1   
    30    14    18 1   
    31    15    16 ar  
    32    15    32 1   
    33    16    33 1   
    34    17    34 1   
    35    20    35 1   
    36    21    22 ar  
    37    21    36 1   
    38    22    37 1   
    39    23    41 2   
    40    24    38 1   
    41    24    39 1   
    42    24    41 1   
    43    31    40 1   
@<TRIPOS>SUBSTRUCTURE
     1 9JS         1 TEMP              0 ****  ****    0 ROOT
