@<TRIPOS>MOLECULE
9JU
   66    70     1     0     0
SMALL
abcg2


@<TRIPOS>ATOM
      1 CAW         -4.0120     1.6580    -0.8380 c6         1 9JU      -0.082067
      2 CAX         -5.4840     2.0660    -0.7650 c6         1 9JU      -0.056367
      3 CBE         -6.3440     0.9770    -1.4090 c6         1 9JU      -0.070733
      4 CAY         -5.8880     2.2410     0.7000 c6         1 9JU      -0.070733
      5 CAZ         -5.6740     0.9230     1.4460 c6         1 9JU      -0.056367
      6 CBA         -4.1980     0.5240     1.3730 c6         1 9JU      -0.082067
      7 CBB         -6.5310    -0.1700     0.8040 c6         1 9JU      -0.070733
      8 CBC         -6.1290    -0.3410    -0.6630 c6         1 9JU      -0.056367
      9 CBD         -4.6540    -0.7430    -0.7470 c6         1 9JU      -0.082067
     10 CAV         -3.7800     0.3370    -0.0920 c6         1 9JU       0.141400
     11 NAT         -2.3580     0.0380    -0.2180 ns         1 9JU      -0.494900
     12 CAM         -1.7080    -1.0340     0.2590 c          1 9JU       0.537600
     13 OAU         -2.2310    -1.9600     0.8680 o          1 9JU      -0.610100
     14 CAJ         -0.2490    -1.0400    -0.0090 cc         1 9JU       0.190500
     15 CAK          0.6650    -2.0850     0.2380 cc         1 9JU      -0.111300
     16 CAL          0.4220    -3.4420     0.8030 c3         1 9JU      -0.011800
     17 NAI          0.3520     0.0090    -0.5480 nd         1 9JU      -0.524800
     18 NAH          1.6200    -0.3250    -0.6760 na         1 9JU       0.155800
     19 CAN          2.5870     0.6770    -1.0830 c3         1 9JU       0.082600
     20 CAO          3.2130     1.3920     0.1060 c3         1 9JU      -0.098400
     21 CAP          4.1980     2.4610    -0.3460 c3         1 9JU      -0.073400
     22 CAQ          4.8540     3.1830     0.8240 c3         1 9JU      -0.081400
     23 CAR          5.8290     4.2440     0.3540 c3         1 9JU       0.164600
     24 OAS          6.4070     4.8750     1.4770 oh         1 9JU      -0.660000
     25 CAG          1.8690    -1.5750    -0.2100 cd         1 9JU      -0.122000
     26 CAE          3.2010    -2.1930    -0.2340 ca         1 9JU      -0.027000
     27 CAD          3.8190    -2.5640     0.9590 ca         1 9JU      -0.091500
     28 CAC          5.0670    -3.1710     0.9460 ca         1 9JU      -0.112500
     29 CAB          5.7130    -3.4090    -0.2600 ca         1 9JU      -0.101000
     30 CAA          5.1040    -3.0430    -1.4540 ca         1 9JU      -0.112500
     31 CAF          3.8540    -2.4430    -1.4420 ca         1 9JU      -0.091500
     32 H1          -3.7050     1.5430    -1.8840 hc         1 9JU       0.051533
     33 H2          -3.3820     2.4420    -0.4030 hc         1 9JU       0.051533
     34 H3          -5.6180     3.0090    -1.3020 hc         1 9JU       0.050033
     35 H4          -7.4000     1.2630    -1.3790 hc         1 9JU       0.041033
     36 H5          -6.0750     0.8600    -2.4640 hc         1 9JU       0.041033
     37 H6          -5.2960     3.0370     1.1610 hc         1 9JU       0.041033
     38 H7          -6.9370     2.5480     0.7670 hc         1 9JU       0.041033
     39 H8          -5.9580     1.0460     2.4960 hc         1 9JU       0.050033
     40 H9          -3.5710     1.2970     1.8290 hc         1 9JU       0.051533
     41 H10         -4.0310    -0.3980     1.9350 hc         1 9JU       0.051533
     42 H11         -6.4070    -1.1140     1.3440 hc         1 9JU       0.041033
     43 H12         -7.5910     0.0950     0.8740 hc         1 9JU       0.041033
     44 H13         -6.7370    -1.1270    -1.1210 hc         1 9JU       0.050033
     45 H14         -4.4990    -1.7060    -0.2570 hc         1 9JU       0.051533
     46 H15         -4.3540    -0.8620    -1.7940 hc         1 9JU       0.051533
     47 H16         -1.7930     0.7250    -0.6950 hn         1 9JU       0.327500
     48 H17         -0.3660    -3.9650     0.2630 hc         1 9JU       0.048367
     49 H18          1.3250    -4.0490     0.7500 hc         1 9JU       0.048367
     50 H19          0.1160    -3.3930     1.8480 hc         1 9JU       0.048367
     51 H20          3.3560     0.1950    -1.6860 h1         1 9JU       0.067700
     52 H21          2.0620     1.3800    -1.7280 h1         1 9JU       0.067700
     53 H22          2.4230     1.8430     0.7120 hc         1 9JU       0.058700
     54 H23          3.7250     0.6630     0.7410 hc         1 9JU       0.058700
     55 H24          4.9700     2.0010    -0.9720 hc         1 9JU       0.039200
     56 H25          3.6810     3.1870    -0.9820 hc         1 9JU       0.039200
     57 H26          4.0840     3.6470     1.4480 hc         1 9JU       0.055700
     58 H27          5.3790     2.4570     1.4530 hc         1 9JU       0.055700
     59 H28          6.5940     3.7760    -0.2800 h1         1 9JU       0.015200
     60 H29          5.2970     4.9670    -0.2800 h1         1 9JU       0.015200
     61 H30          6.9930     5.5680     1.1610 ho         1 9JU       0.443000
     62 H31          3.3240    -2.3700     1.9020 ha         1 9JU       0.120000
     63 H32          5.5370    -3.4520     1.8790 ha         1 9JU       0.116000
     64 H33          6.6870    -3.8810    -0.2710 ha         1 9JU       0.115000
     65 H34          5.5990    -3.2310    -2.3970 ha         1 9JU       0.116000
     66 H35          3.3760    -2.1800    -2.3780 ha         1 9JU       0.120000
@<TRIPOS>BOND
     1     1     2 1   
     2     1    10 1   
     3     1    32 1   
     4     1    33 1   
     5     2     3 1   
     6     2     4 1   
     7     2    34 1   
     8     3     8 1   
     9     3    35 1   
    10     3    36 1   
    11     4     5 1   
    12     4    37 1   
    13     4    38 1   
    14     5     6 1   
    15     5     7 1   
    16     5    39 1   
    17     6    10 1   
    18     6    40 1   
    19     6    41 1   
    20     7     8 1   
    21     7    42 1   
    22     7    43 1   
    23     8     9 1   
    24     8    44 1   
    25     9    10 1   
    26     9    45 1   
    27     9    46 1   
    28    10    11 1   
    29    11    12 1   
    30    11    47 1   
    31    12    13 2   
    32    12    14 1   
    33    14    15 1   
    34    14    17 2   
    35    15    16 1   
    36    15    25 2   
    37    16    48 1   
    38    16    49 1   
    39    16    50 1   
    40    17    18 1   
    41    18    19 1   
    42    18    25 1   
    43    19    20 1   
    44    19    51 1   
    45    19    52 1   
    46    20    21 1   
    47    20    53 1   
    48    20    54 1   
    49    21    22 1   
    50    21    55 1   
    51    21    56 1   
    52    22    23 1   
    53    22    57 1   
    54    22    58 1   
    55    23    24 1   
    56    23    59 1   
    57    23    60 1   
    58    24    61 1   
    59    25    26 1   
    60    26    27 ar  
    61    26    31 ar  
    62    27    28 ar  
    63    27    62 1   
    64    28    29 ar  
    65    28    63 1   
    66    29    30 ar  
    67    29    64 1   
    68    30    31 ar  
    69    30    65 1   
    70    31    66 1   
@<TRIPOS>SUBSTRUCTURE
     1 9JU         1 TEMP              0 ****  ****    0 ROOT
