@<TRIPOS>MOLECULE
9JU
   66    70     1     0     0
SMALL
No Charge or Current Charge


@<TRIPOS>ATOM
      1 CAW         -4.2010     1.7120    -0.7000 c6         1 9JU      -0.082067
      2 CAX         -5.7100     2.0800    -0.5940 c6         1 9JU      -0.056367
      3 CBE         -6.5520     1.0230    -1.3630 c6         1 9JU      -0.070733
      4 CAY         -6.1320     2.0890     0.9030 c6         1 9JU      -0.070733
      5 CAZ         -5.8810     0.6850     1.5220 c6         1 9JU      -0.056367
      6 CBA         -4.3670     0.3360     1.4120 c6         1 9JU      -0.082067
      7 CBB         -6.7150    -0.3790     0.7490 c6         1 9JU      -0.070733
      8 CBC         -6.3020    -0.3850    -0.7530 c6         1 9JU      -0.056367
      9 CBD         -4.7900    -0.7390    -0.8720 c6         1 9JU      -0.082067
     10 CAV         -3.9260     0.3000    -0.0870 c6         1 9JU       0.141400
     11 NAT         -2.4860     0.0320    -0.2270 ns         1 9JU      -0.494900
     12 CAM         -1.7740    -1.0890     0.1670 c          1 9JU       0.537600
     13 OAU         -2.3170    -2.0410     0.7170 o          1 9JU      -0.610100
     14 CAJ         -0.3000    -0.9730    -0.1550 cc         1 9JU       0.190500
     15 CAK          0.6630    -1.9800     0.1300 cc         1 9JU      -0.111300
     16 CAL          0.3470    -3.3370     0.7240 c3         1 9JU      -0.011800
     17 NAI          0.2340     0.1030    -0.7170 nd         1 9JU      -0.524800
     18 NAH          1.5780    -0.2050    -0.7990 na         1 9JU       0.155800
     19 CAN          2.5190     0.8470    -1.2410 c3         1 9JU       0.082600
     20 CAO          3.4300     1.3820    -0.1110 c3         1 9JU      -0.098400
     21 CAP          4.4050     2.4780    -0.5940 c3         1 9JU      -0.073400
     22 CAQ          5.3210     3.0090     0.5310 c3         1 9JU      -0.081400
     23 CAR          6.2940     4.1020     0.0480 c3         1 9JU       0.164600
     24 OAS          7.1060     4.5440     1.1410 oh         1 9JU      -0.660000
     25 CAG          1.8720    -1.4970    -0.3120 cd         1 9JU      -0.122000
     26 CAE          3.2200    -2.0820    -0.1010 ca         1 9JU      -0.027000
     27 CAD          3.5100    -2.8220     1.0670 ca         1 9JU      -0.091500
     28 CAC          4.7890    -3.3640     1.2800 ca         1 9JU      -0.112500
     29 CAB          5.8010    -3.1780     0.3250 ca         1 9JU      -0.101000
     30 CAA          5.5280    -2.4490    -0.8420 ca         1 9JU      -0.112500
     31 CAF          4.2490    -1.9050    -1.0520 ca         1 9JU      -0.091500
     32 H1          -3.8880     1.7350    -1.7530 hc         1 9JU       0.051533
     33 H2          -3.5980     2.4730    -0.1850 hc         1 9JU       0.051533
     34 H3          -5.8790     3.0740    -1.0300 hc         1 9JU       0.050033
     35 H4          -7.6200     1.2760    -1.3100 hc         1 9JU       0.041033
     36 H5          -6.2840     1.0270    -2.4290 hc         1 9JU       0.041033
     37 H6          -5.5660     2.8540     1.4530 hc         1 9JU       0.041033
     38 H7          -7.1930     2.3610     0.9970 hc         1 9JU       0.041033
     39 H8          -6.1810     0.6910     2.5790 hc         1 9JU       0.050033
     40 H9          -3.7690     1.0730     1.9670 hc         1 9JU       0.051533
     41 H10         -4.1840    -0.6330     1.8930 hc         1 9JU       0.051533
     42 H11         -6.5610    -1.3740     1.1890 hc         1 9JU       0.041033
     43 H12         -7.7870    -0.1610     0.8450 hc         1 9JU       0.041033
     44 H13         -6.8980    -1.1320    -1.2950 hc         1 9JU       0.050033
     45 H14         -4.6240    -1.7520    -0.4850 hc         1 9JU       0.051533
     46 H15         -4.4900    -0.7610    -1.9290 hc         1 9JU       0.051533
     47 H16         -1.9170     0.7480    -0.6650 hn         1 9JU       0.327500
     48 H17         -0.5260    -3.7890     0.2420 hc         1 9JU       0.048367
     49 H18          1.1680    -4.0460     0.5760 hc         1 9JU       0.048367
     50 H19          0.1470    -3.2610     1.8000 hc         1 9JU       0.048367
     51 H20          3.1210     0.4730    -2.0730 h1         1 9JU       0.067700
     52 H21          1.9320     1.6860    -1.6360 h1         1 9JU       0.067700
     53 H22          2.8010     1.7830     0.6930 hc         1 9JU       0.058700
     54 H23          4.0070     0.5560     0.3210 hc         1 9JU       0.058700
     55 H24          5.0270     2.0750    -1.4030 hc         1 9JU       0.039200
     56 H25          3.8300     3.3120    -1.0160 hc         1 9JU       0.039200
     57 H26          4.7010     3.4140     1.3410 hc         1 9JU       0.055700
     58 H27          5.8970     2.1760     0.9520 hc         1 9JU       0.055700
     59 H28          6.9260     3.6970    -0.7540 h1         1 9JU       0.015200
     60 H29          5.7210     4.9430    -0.3640 h1         1 9JU       0.015200
     61 H30          7.7070     5.2370     0.7870 ho         1 9JU       0.443000
     62 H31          2.7590    -2.9460     1.8410 ha         1 9JU       0.120000
     63 H32          4.9980    -3.9220     2.1900 ha         1 9JU       0.116000
     64 H33          6.7910    -3.5980     0.4890 ha         1 9JU       0.115000
     65 H34          6.3060    -2.3120    -1.5900 ha         1 9JU       0.116000
     66 H35          4.0570    -1.3860    -1.9840 ha         1 9JU       0.120000
@<TRIPOS>BOND
     1     1     2 1   
     2     1    10 1   
     3     1    32 1   
     4     1    33 1   
     5     2     3 1   
     6     2     4 1   
     7     2    34 1   
     8     3     8 1   
     9     3    35 1   
    10     3    36 1   
    11     4     5 1   
    12     4    37 1   
    13     4    38 1   
    14     5     6 1   
    15     5     7 1   
    16     5    39 1   
    17     6    10 1   
    18     6    40 1   
    19     6    41 1   
    20     7     8 1   
    21     7    42 1   
    22     7    43 1   
    23     8     9 1   
    24     8    44 1   
    25     9    10 1   
    26     9    45 1   
    27     9    46 1   
    28    10    11 1   
    29    11    12 1   
    30    11    47 1   
    31    12    13 2   
    32    12    14 1   
    33    14    15 1   
    34    14    17 2   
    35    15    16 1   
    36    15    25 2   
    37    16    48 1   
    38    16    49 1   
    39    16    50 1   
    40    17    18 1   
    41    18    19 1   
    42    18    25 1   
    43    19    20 1   
    44    19    51 1   
    45    19    52 1   
    46    20    21 1   
    47    20    53 1   
    48    20    54 1   
    49    21    22 1   
    50    21    55 1   
    51    21    56 1   
    52    22    23 1   
    53    22    57 1   
    54    22    58 1   
    55    23    24 1   
    56    23    59 1   
    57    23    60 1   
    58    24    61 1   
    59    25    26 1   
    60    26    27 ar  
    61    26    31 ar  
    62    27    28 ar  
    63    27    62 1   
    64    28    29 ar  
    65    28    63 1   
    66    29    30 ar  
    67    29    64 1   
    68    30    31 ar  
    69    30    65 1   
    70    31    66 1   
@<TRIPOS>SUBSTRUCTURE
     1 9JU         1 TEMP              0 ****  ****    0 ROOT
