@<TRIPOS>MOLECULE
9JV
   25    26     1     0     0
SMALL
bcc


@<TRIPOS>ATOM
      1 C75         -3.4770    17.3420    30.5760 c          1 9JV       0.824100
      2 C76         -5.3010    17.2810    33.9130 ca         1 9JV       0.122100
      3 C77         -4.6660    16.8640    32.7710 ca         1 9JV      -0.295300
      4 C78         -4.1980    17.8230    31.8470 ca         1 9JV       0.389800
      5 C79         -6.1180    19.1960    35.2900 ca         1 9JV      -0.147000
      6 C80         -5.4830    18.6750    34.1430 ca         1 9JV      -0.140300
      7 C81         -4.9850    19.5410    33.1440 ca         1 9JV       0.369600
      8 C82         -5.1360    20.9570    33.3010 ca         1 9JV       0.121300
      9 C83         -5.7570    21.4360    34.4400 ca         1 9JV      -0.247000
     10 C84         -6.2400    20.5560    35.4200 ca         1 9JV      -0.117000
     11 N2          -4.3540    19.1100    32.0300 nb         1 9JV      -0.674000
     12 N           -4.6990    21.7780    32.2970 nv         1 9JV      -0.826200
     13 O14         -3.3580    16.1060    30.4650 o          1 9JV      -0.805800
     14 C103        -5.6330    15.0720    34.6980 c3         1 9JV       0.130700
     15 OXT         -3.0830    18.2160    29.7890 o          1 9JV      -0.805800
     16 H1          -4.5060    15.8200    32.5510 ha         1 9JV       0.164000
     17 H5          -6.5000    18.5380    36.0570 ha         1 9JV       0.128000
     18 H3          -5.8740    22.5040    34.5760 ha         1 9JV       0.111000
     19 H4          -6.7200    20.9700    36.2980 ha         1 9JV       0.105000
     20 H           -4.4950    22.7310    32.5490 hn         1 9JV       0.409300
     21 H2          -4.0320    21.3650    31.6660 hn         1 9JV       0.409300
     22 H7          -6.0850    14.6120    35.5720 h1         1 9JV       0.034700
     23 H8          -6.1450    14.7130    33.8020 h1         1 9JV       0.034700
     24 H9          -4.5820    14.7800    34.6460 h1         1 9JV       0.034700
     25 O15         -5.7810    16.4710    34.8610 os         1 9JV      -0.330900
@<TRIPOS>BOND
     1     1     4 1   
     2     1    13 1   
     3     1    15 1   
     4     2     3 ar  
     5     2     6 ar  
     6     2    25 1   
     7     3     4 ar  
     8     3    16 1   
     9     4    11 ar  
    10     5     6 ar  
    11     5    10 ar  
    12     5    17 1   
    13     6     7 ar  
    14     7     8 ar  
    15     7    11 ar  
    16     8     9 ar  
    17     8    12 1   
    18     9    10 ar  
    19     9    18 1   
    20    10    19 1   
    21    12    20 1   
    22    12    21 1   
    23    14    22 1   
    24    14    23 1   
    25    14    24 1   
    26    14    25 1   
@<TRIPOS>SUBSTRUCTURE
     1 9JV         1 TEMP              0 ****  ****    0 ROOT
