@<TRIPOS>MOLECULE
9JW
   37    39     1     0     0
SMALL
No Charge or Current Charge


@<TRIPOS>ATOM
      1 C01         -2.1300     3.2660    -1.3460 c2         1 9JW      -0.287000
      2 C02         -1.5000     2.2880    -0.6470 ce         1 9JW      -0.125000
      3 C03         -2.2450     1.0490    -0.2580 ca         1 9JW      -0.020800
      4 C04         -3.0970     0.4090    -1.1820 ca         1 9JW      -0.116000
      5 C05         -3.8040    -0.7510    -0.8160 ca         1 9JW      -0.111000
      6 C06         -3.6660    -1.2740     0.4790 ca         1 9JW       0.071000
      7 F07         -4.3500    -2.3890     0.8240 f          1 9JW      -0.191000
      8 C08         -2.8220    -0.6410     1.4140 ca         1 9JW       0.106100
      9 O09         -2.6850    -1.1410     2.6800 oh         1 9JW      -0.527100
     10 C10         -2.1180     0.5170     1.0430 ca         1 9JW      -0.087000
     11 C11         -0.0350     2.3650    -0.3070 ca         1 9JW       0.407800
     12 C12          0.5900     3.6050    -0.0630 ca         1 9JW      -0.150000
     13 C13          1.9570     3.6400     0.2520 ca         1 9JW      -0.075000
     14 C14          2.6500     2.4230     0.3120 ca         1 9JW      -0.147000
     15 C15          1.9680     1.2100     0.0530 cp         1 9JW       0.409500
     16 C16          2.6680    -0.1140     0.1480 cp         1 9JW      -0.141500
     17 C17          3.6020    -0.3470     1.1940 ca         1 9JW      -0.114000
     18 C18          4.2720    -1.5750     1.3160 ca         1 9JW      -0.092000
     19 C19          4.0300    -2.6040     0.3920 ca         1 9JW      -0.119000
     20 C20          3.1200    -2.4040    -0.6570 ca         1 9JW       0.104100
     21 O21          2.9060    -3.4140    -1.5560 oh         1 9JW      -0.527100
     22 C22          2.4440    -1.1700    -0.7810 ca         1 9JW       0.110000
     23 F23          1.6030    -1.0010    -1.8300 f          1 9JW      -0.170000
     24 N24          0.6500     1.1990    -0.2430 nb         1 9JW      -0.650000
     25 H1          -1.6160     4.1640    -1.6890 ha         1 9JW       0.173000
     26 H2          -3.1870     3.1960    -1.6040 ha         1 9JW       0.173000
     27 H3          -3.2030     0.8030    -2.1910 ha         1 9JW       0.119000
     28 H4          -4.4550    -1.2430    -1.5340 ha         1 9JW       0.130000
     29 H5          -3.2480    -1.9430     2.7510 ho         1 9JW       0.474000
     30 H6          -1.4720     1.0040     1.7690 ha         1 9JW       0.143000
     31 H7           0.0210     4.5280    -0.1030 ha         1 9JW       0.126000
     32 H8           2.4630     4.5840     0.4480 ha         1 9JW       0.121000
     33 H9           3.7090     2.4120     0.5510 ha         1 9JW       0.128000
     34 H10          3.7980     0.4310     1.9290 ha         1 9JW       0.120000
     35 H11          4.9780    -1.7310     2.1290 ha         1 9JW       0.121000
     36 H12          4.5500    -3.5540     0.4870 ha         1 9JW       0.133000
     37 H13          2.2480    -3.1010    -2.2150 ho         1 9JW       0.479000
@<TRIPOS>BOND
     1     1     2 2   
     2     1    25 1   
     3     1    26 1   
     4     2     3 1   
     5     2    11 1   
     6     3     4 ar  
     7     3    10 ar  
     8     4     5 ar  
     9     4    27 1   
    10     5     6 ar  
    11     5    28 1   
    12     6     7 1   
    13     6     8 ar  
    14     8     9 1   
    15     8    10 ar  
    16     9    29 1   
    17    10    30 1   
    18    11    12 ar  
    19    11    24 ar  
    20    12    13 ar  
    21    12    31 1   
    22    13    14 ar  
    23    13    32 1   
    24    14    15 ar  
    25    14    33 1   
    26    15    16 1   
    27    15    24 ar  
    28    16    17 ar  
    29    16    22 ar  
    30    17    18 ar  
    31    17    34 1   
    32    18    19 ar  
    33    18    35 1   
    34    19    20 ar  
    35    19    36 1   
    36    20    21 1   
    37    20    22 ar  
    38    21    37 1   
    39    22    23 1   
@<TRIPOS>SUBSTRUCTURE
     1 9JW         1 TEMP              0 ****  ****    0 ROOT
