@<TRIPOS>MOLECULE
9JW
   37    39     1     0     0
SMALL
bcc


@<TRIPOS>ATOM
      1 C01         -2.1420     3.4530     0.4010 c2         1 9JW      -0.187000
      2 C02         -1.4750     2.3540     0.0470 ce         1 9JW      -0.125000
      3 C03         -2.1870     1.0630    -0.1400 ca         1 9JW      -0.020800
      4 C04         -2.9580     0.8690    -1.2810 ca         1 9JW      -0.134000
      5 C05         -3.6550    -0.3200    -1.4600 ca         1 9JW      -0.129000
      6 C06         -3.5710    -1.2960    -0.4940 ca         1 9JW       0.035900
      7 F07         -4.2520    -2.4510    -0.6430 f          1 9JW      -0.155900
      8 C08         -2.7990    -1.1370     0.6530 ca         1 9JW       0.106100
      9 O09         -2.7090    -2.0800     1.6100 oh         1 9JW      -0.488100
     10 C10         -2.1050     0.0540     0.8140 ca         1 9JW      -0.105000
     11 C11         -0.0140     2.3750    -0.1980 ca         1 9JW       0.473100
     12 C12          0.6180     3.4990    -0.7320 ca         1 9JW      -0.233300
     13 C13          1.9870     3.4560    -0.9290 ca         1 9JW      -0.093000
     14 C14          2.6830     2.3040    -0.5990 ca         1 9JW      -0.230300
     15 C15          1.9690     1.2280    -0.0780 cp         1 9JW       0.474800
     16 C16          2.6690    -0.0170     0.3090 cp         1 9JW      -0.141500
     17 C17          3.8520     0.0340     1.0470 ca         1 9JW      -0.132000
     18 C18          4.5020    -1.1340     1.4120 ca         1 9JW      -0.110000
     19 C19          3.9930    -2.3710     1.0460 ca         1 9JW      -0.137000
     20 C20          2.8180    -2.4480     0.3070 ca         1 9JW       0.104100
     21 O21          2.3520    -3.6570    -0.0540 oh         1 9JW      -0.488100
     22 C22          2.1780    -1.2630    -0.0450 ca         1 9JW       0.074900
     23 F23          1.0610    -1.3710    -0.7850 f          1 9JW      -0.134900
     24 N24          0.6550     1.2700     0.1080 nb         1 9JW      -0.650000
     25 H1          -1.6440     4.4030     0.5480 ha         1 9JW       0.123000
     26 H2          -3.2100     3.4310     0.5700 ha         1 9JW       0.123000
     27 H3          -3.0190     1.6420    -2.0350 ha         1 9JW       0.137000
     28 H4          -4.2630    -0.4840    -2.3400 ha         1 9JW       0.148000
     29 H5          -3.2300    -2.8580     1.3820 ho         1 9JW       0.435000
     30 H6          -1.5010     0.1880     1.7020 ha         1 9JW       0.161000
     31 H7           0.0490     4.3750    -1.0100 ha         1 9JW       0.144000
     32 H8           2.5050     4.3070    -1.3500 ha         1 9JW       0.139000
     33 H9           3.7510     2.2350    -0.7600 ha         1 9JW       0.146000
     34 H10          4.2500     0.9940     1.3460 ha         1 9JW       0.138000
     35 H11          5.4140    -1.0840     1.9920 ha         1 9JW       0.139000
     36 H12          4.5000    -3.2850     1.3260 ha         1 9JW       0.151000
     37 H13          1.5220    -3.5800    -0.5390 ho         1 9JW       0.440000
@<TRIPOS>BOND
     1     1     2 2   
     2     1    25 1   
     3     1    26 1   
     4     2     3 1   
     5     2    11 1   
     6     3     4 ar  
     7     3    10 ar  
     8     4     5 ar  
     9     4    27 1   
    10     5     6 ar  
    11     5    28 1   
    12     6     7 1   
    13     6     8 ar  
    14     8     9 1   
    15     8    10 ar  
    16     9    29 1   
    17    10    30 1   
    18    11    12 ar  
    19    11    24 ar  
    20    12    13 ar  
    21    12    31 1   
    22    13    14 ar  
    23    13    32 1   
    24    14    15 ar  
    25    14    33 1   
    26    15    16 1   
    27    15    24 ar  
    28    16    17 ar  
    29    16    22 ar  
    30    17    18 ar  
    31    17    34 1   
    32    18    19 ar  
    33    18    35 1   
    34    19    20 ar  
    35    19    36 1   
    36    20    21 1   
    37    20    22 ar  
    38    21    37 1   
    39    22    23 1   
@<TRIPOS>SUBSTRUCTURE
     1 9JW         1 TEMP              0 ****  ****    0 ROOT
