@<TRIPOS>MOLECULE
9JX
   55    59     1     0     0
SMALL
No Charge or Current Charge


@<TRIPOS>ATOM
      1 C4           7.4870     0.9740    -0.8500 ca         1 9JX      -0.095000
      2 C5           5.2570     2.0020     1.0490 ca         1 9JX      -0.113000
      3 C6           2.8280     1.9900     1.1290 ca         1 9JX      -0.144000
      4 C7           8.0910    -1.7100    -0.3100 ca         1 9JX      -0.108000
      5 C8           4.0050     0.2360    -0.0530 ca         1 9JX      -0.092000
      6 C10         -9.5650    -0.8960     0.4720 cc         1 9JX      -0.291000
      7 C13          2.7790     0.8430     0.3070 ca         1 9JX      -0.023000
      8 C15         -7.4360     0.2070     0.0210 cc         1 9JX       0.350900
      9 C20         -4.5130    -0.4970    -0.5140 c6         1 9JX       0.089500
     10 C21         -2.5600     1.6200    -0.9520 c6         1 9JX       0.138300
     11 C22         -3.0640    -0.7170    -1.0250 c6         1 9JX       0.138300
     12 C24         -0.6600    -0.0120    -0.8330 c5         1 9JX       0.159500
     13 C1           8.7060     0.4290    -1.2850 ca         1 9JX      -0.113000
     14 C2           9.0080    -0.9150    -1.0180 ca         1 9JX      -0.099000
     15 C3           4.0540     2.5800     1.4750 ca         1 9JX      -0.095000
     16 C9          -8.5090    -1.7500     0.2880 cd         1 9JX       0.270900
     17 C11          5.2540     0.8080     0.2940 cp         1 9JX      -0.019000
     18 C12          6.5410     0.1890    -0.1450 cp         1 9JX      -0.031000
     19 C14          6.8690    -1.1690     0.1260 ca         1 9JX       0.133000
     20 C16          1.2650    -1.1860    -0.0500 c          1 9JX       0.567000
     21 C18         -0.2500    -1.3250    -0.1310 c5         1 9JX      -0.169400
     22 C19         -3.9620     1.9790    -0.3990 c6         1 9JX       0.089500
     23 C23          0.2670     0.9970    -0.0730 c5         1 9JX       0.095000
     24 N25         -7.2970    -1.1280     0.0340 nd         1 9JX      -0.636000
     25 N26          1.5000     0.1960     0.1060 n          1 9JX      -0.235400
     26 N27         -5.0170     0.9160    -0.4850 n          1 9JX      -0.382800
     27 N28         -2.0930     0.2820    -0.5030 n3         1 9JX      -0.701600
     28 O30         -6.6570     2.4730    -0.1340 o          1 9JX      -0.614100
     29 S31         -9.0680     0.7630     0.3300 ss         1 9JX       0.104600
     30 Cl1          5.7960    -2.2180     1.0550 cl         1 9JX      -0.185000
     31 H1           7.2630     2.0160    -1.0690 ha         1 9JX       0.118000
     32 H2           6.2020     2.4640     1.3260 ha         1 9JX       0.118000
     33 H3           1.9120     2.4390     1.5030 ha         1 9JX       0.113000
     34 H4           8.3310    -2.7480    -0.0920 ha         1 9JX       0.129000
     35 H5           4.0160    -0.6630    -0.6580 ha         1 9JX       0.143000
     36 H7          -5.1560    -1.1020    -1.1660 h1         1 9JX       0.074950
     37 H8          -4.5830    -0.9090     0.5030 h1         1 9JX       0.074950
     38 H9          -2.5950     1.6560    -2.0510 h1         1 9JX       0.045450
     39 H10         -1.8670     2.4120    -0.6350 h1         1 9JX       0.045450
     40 H11         -2.7720    -1.7400    -0.7500 h1         1 9JX       0.045450
     41 H12         -3.0740    -0.6820    -2.1240 h1         1 9JX       0.045450
     42 H13         -0.4550    -0.0330    -1.9130 h1         1 9JX       0.040700
     43 H14          9.4160     1.0480    -1.8300 ha         1 9JX       0.117000
     44 H15          9.9530    -1.3390    -1.3520 ha         1 9JX       0.118000
     45 H16          4.0710     3.4800     2.0870 ha         1 9JX       0.115000
     46 H17         -8.5580    -2.8320     0.3270 h4         1 9JX       0.044100
     47 H18         -0.6410    -1.3210     0.8920 hc         1 9JX       0.086200
     48 H19         -0.5350    -2.2510    -0.6380 hc         1 9JX       0.086200
     49 H20         -3.8470     2.2500     0.6600 h1         1 9JX       0.074950
     50 H21         -4.3060     2.8830    -0.9200 h1         1 9JX       0.074950
     51 H22          0.4480     1.9080    -0.6570 h1         1 9JX       0.059200
     52 H23         -0.1510     1.2780     0.9030 h1         1 9JX       0.059200
     53 O29          2.1030    -2.0540    -0.2480 o          1 9JX      -0.522000
     54 C17         -6.3750     1.2770    -0.2000 c          1 9JX       0.536600
     55 H6         -10.5980    -1.1350     0.6810 h4         1 9JX       0.164000
@<TRIPOS>BOND
     1     1    13 ar  
     2     1    18 ar  
     3     1    31 1   
     4     2    15 ar  
     5     2    17 ar  
     6     2    32 1   
     7     3     7 ar  
     8     3    15 ar  
     9     3    33 1   
    10     4    14 ar  
    11     4    19 ar  
    12     4    34 1   
    13     5     7 ar  
    14     5    17 ar  
    15     5    35 1   
    16     6    16 2   
    17     6    29 1   
    18     6    55 1   
    19     7    25 1   
    20     8    24 2   
    21     8    29 1   
    22     8    54 1   
    23     9    11 1   
    24     9    26 1   
    25     9    36 1   
    26     9    37 1   
    27    10    22 1   
    28    10    27 1   
    29    10    38 1   
    30    10    39 1   
    31    11    27 1   
    32    11    40 1   
    33    11    41 1   
    34    12    21 1   
    35    12    23 1   
    36    12    27 1   
    37    12    42 1   
    38    13    14 ar  
    39    13    43 1   
    40    14    44 1   
    41    15    45 1   
    42    16    24 1   
    43    16    46 1   
    44    17    18 1   
    45    18    19 ar  
    46    19    30 1   
    47    20    21 1   
    48    20    25 1   
    49    20    53 2   
    50    21    47 1   
    51    21    48 1   
    52    22    26 1   
    53    22    49 1   
    54    22    50 1   
    55    23    25 1   
    56    23    51 1   
    57    23    52 1   
    58    26    54 1   
    59    28    54 2   
@<TRIPOS>SUBSTRUCTURE
     1 9JX         1 TEMP              0 ****  ****    0 ROOT
