@<TRIPOS>MOLECULE
9JX
   55    59     1     0     0
SMALL
bcc


@<TRIPOS>ATOM
      1 C4           6.8490     0.9510    -1.7210 ca         1 9JX      -0.113000
      2 C5           5.2230     2.0330     0.6270 ca         1 9JX      -0.131000
      3 C6           2.9080     1.9790     1.2840 ca         1 9JX      -0.162000
      4 C7           7.8150    -1.5780    -1.1670 ca         1 9JX      -0.126000
      5 C8           3.8470     0.1500     0.0330 ca         1 9JX      -0.110000
      6 C10         -8.7940    -0.7460    -2.1910 cc         1 9JX      -0.229400
      7 C13          2.7570     0.7350     0.6730 ca         1 9JX       0.069600
      8 C15         -6.8820     0.2110    -1.0740 cc         1 9JX       0.350900
      9 C20         -4.4960    -0.4070     0.6660 c6         1 9JX       0.089500
     10 C21         -2.5110     1.5410     0.1620 c6         1 9JX       0.138300
     11 C22         -3.0820    -0.7670     0.2360 c6         1 9JX       0.138300
     12 C24         -0.7830    -0.1030     0.2270 c5         1 9JX       0.159500
     13 C1           7.9260     0.4540    -2.4390 ca         1 9JX      -0.131000
     14 C2           8.4080    -0.8190    -2.1620 ca         1 9JX      -0.117000
     15 C3           4.1350     2.6210     1.2550 ca         1 9JX      -0.113000
     16 C9          -8.0950    -1.5930    -1.3850 cd         1 9JX       0.336200
     17 C11          5.0810     0.7910     0.0120 cp         1 9JX      -0.019000
     18 C12          6.2260     0.2030    -0.7190 cp         1 9JX      -0.031000
     19 C14          6.7370    -1.0680    -0.4600 ca         1 9JX       0.041400
     20 C16          1.2590    -1.2140     0.7610 c          1 9JX       0.709500
     21 C18         -0.2360    -1.4110     0.7900 c5         1 9JX      -0.169400
     22 C19         -3.9110     1.9170     0.6110 c6         1 9JX       0.089500
     23 C23          0.2660     0.9000     0.7000 c5         1 9JX       0.095000
     24 N25         -7.0190    -1.0390    -0.7630 nd         1 9JX      -0.636000
     25 N26          1.4930     0.1210     0.6560 n          1 9JX      -0.395000
     26 N27         -4.8670     0.9080     0.1780 n          1 9JX      -0.449800
     27 N28         -2.1210     0.2310     0.6650 n3         1 9JX      -0.701600
     28 O30         -6.0780     2.3750    -1.0440 o          1 9JX      -0.614100
     29 S31         -8.0840     0.8020    -2.1670 ss         1 9JX      -0.040300
     30 CL1          6.0700    -2.0440     0.8100 cl         1 9JX      -0.093400
     31 H1           6.4640     1.9380    -1.9460 ha         1 9JX       0.136000
     32 H2           6.1800     2.5370     0.6170 ha         1 9JX       0.136000
     33 H3           2.0700     2.4520     1.7790 ha         1 9JX       0.131000
     34 H4           8.1920    -2.5660    -0.9370 ha         1 9JX       0.147000
     35 H5           3.7290    -0.7910    -0.4850 ha         1 9JX       0.161000
     36 H7          -5.1850    -1.1630     0.3100 h1         1 9JX       0.074950
     37 H8          -4.5490    -0.3900     1.7590 h1         1 9JX       0.074950
     38 H9          -2.4650     1.5810    -0.9400 h1         1 9JX       0.045450
     39 H10         -1.8270     2.3020     0.5430 h1         1 9JX       0.045450
     40 H11         -2.8860    -1.7250     0.7040 h1         1 9JX       0.045450
     41 H12         -3.0630    -0.9100    -0.8590 h1         1 9JX       0.045450
     42 H13         -0.7200    -0.1430    -0.8750 h1         1 9JX       0.040700
     43 H14          8.3820     1.0560    -3.2140 ha         1 9JX       0.135000
     44 H15          9.2470    -1.2230    -2.7140 ha         1 9JX       0.136000
     45 H16          4.2440     3.5860     1.7320 ha         1 9JX       0.133000
     46 H17         -8.3360    -2.6330    -1.2170 h4         1 9JX       0.044100
     47 H18         -0.5450    -1.5430     1.8340 hc         1 9JX       0.086200
     48 H19         -0.5220    -2.3070     0.2380 hc         1 9JX       0.086200
     49 H20         -3.9440     1.9770     1.7020 h1         1 9JX       0.074950
     50 H21         -4.1810     2.8910     0.2120 h1         1 9JX       0.074950
     51 H22          0.3470     1.7770     0.0590 h1         1 9JX       0.059200
     52 H23          0.0350     1.2330     1.7180 h1         1 9JX       0.059200
     53 O29          2.1110    -2.0780     0.8400 o          1 9JX      -0.597500
     54 C17         -5.8840     1.2340    -0.6330 c          1 9JX       0.603600
     55 H6          -9.6770    -0.9650    -2.7750 h4         1 9JX       0.182000
@<TRIPOS>BOND
     1     1    13 ar  
     2     1    18 ar  
     3     1    31 1   
     4     2    15 ar  
     5     2    17 ar  
     6     2    32 1   
     7     3     7 ar  
     8     3    15 ar  
     9     3    33 1   
    10     4    14 ar  
    11     4    19 ar  
    12     4    34 1   
    13     5     7 ar  
    14     5    17 ar  
    15     5    35 1   
    16     6    16 2   
    17     6    29 1   
    18     6    55 1   
    19     7    25 1   
    20     8    24 2   
    21     8    29 1   
    22     8    54 1   
    23     9    11 1   
    24     9    26 1   
    25     9    36 1   
    26     9    37 1   
    27    10    22 1   
    28    10    27 1   
    29    10    38 1   
    30    10    39 1   
    31    11    27 1   
    32    11    40 1   
    33    11    41 1   
    34    12    21 1   
    35    12    23 1   
    36    12    27 1   
    37    12    42 1   
    38    13    14 ar  
    39    13    43 1   
    40    14    44 1   
    41    15    45 1   
    42    16    24 1   
    43    16    46 1   
    44    17    18 1   
    45    18    19 ar  
    46    19    30 1   
    47    20    21 1   
    48    20    25 1   
    49    20    53 2   
    50    21    47 1   
    51    21    48 1   
    52    22    26 1   
    53    22    49 1   
    54    22    50 1   
    55    23    25 1   
    56    23    51 1   
    57    23    52 1   
    58    26    54 1   
    59    28    54 2   
@<TRIPOS>SUBSTRUCTURE
     1 9JX         1 TEMP              0 ****  ****    0 ROOT
