@<TRIPOS>MOLECULE
9JY
   63    66     1     0     0
SMALL
abcg2


@<TRIPOS>ATOM
      1 C1           7.2580    -1.0750    -0.2520 c3         1 9JY      -0.341400
      2 C2           4.6730    -0.8160     1.9240 c6         1 9JY       0.196800
      3 C3           3.3130    -0.3870     2.4460 c6         1 9JY      -0.074400
      4 O1           5.2850    -2.1230    -1.6490 o          1 9JY      -0.528000
      5 O2           0.9210     3.7370    -2.2720 oh         1 9JY      -0.664000
      6 C11         -3.5750     1.3230     1.2870 cc         1 9JY      -0.232000
      7 C12         -4.0160    -0.3860    -0.5070 cc         1 9JY      -0.108300
      8 C13         -3.1580    -0.8370    -1.4910 cd         1 9JY      -0.035400
      9 C14         -2.0670     0.6290    -0.4270 cc         1 9JY      -0.178000
     10 C15         -5.3940    -0.7670    -0.2120 ca         1 9JY      -0.024800
     11 C16         -6.3850     0.1820     0.0480 ca         1 9JY      -0.094000
     12 C17         -7.6920    -0.2110     0.2880 ca         1 9JY      -0.110500
     13 C18         -8.0600    -1.5550     0.2640 ca         1 9JY      -0.067300
     14 C19         -9.4830    -1.9660     0.4990 c3         1 9JY      -0.048800
     15 C20         -7.0690    -2.4970    -0.0040 ca         1 9JY      -0.110500
     16 C21         -5.7570    -2.1130    -0.2340 ca         1 9JY      -0.094000
     17 C22          4.2050     0.2400    -0.2310 c6         1 9JY       0.195800
     18 S            5.7000    -1.9580    -0.2620 s6         1 9JY       1.183100
     19 O            5.8490    -3.1530     0.5600 o          1 9JY      -0.528000
     20 C            8.3560    -1.8770    -0.9300 c3         1 9JY      -0.062100
     21 N            4.5860    -0.9860     0.4720 n3         1 9JY      -0.722500
     22 C5           2.8320     0.7150     0.2350 c6         1 9JY      -0.059700
     23 C4           2.8200     0.8770     1.7520 c6         1 9JY      -0.074400
     24 C6           2.4900     2.0030    -0.5100 c3         1 9JY      -0.084400
     25 C7           1.1150     2.5810    -0.1880 c3         1 9JY       0.244500
     26 C8           0.8710     3.9170    -0.8760 c3         1 9JY       0.135600
     27 N1           0.0890     1.6140    -0.5170 nu         1 9JY      -0.907100
     28 C9          -1.1050     1.5550     0.0940 cc         1 9JY       0.679900
     29 N3          -3.2930     0.5590     0.1720 na         1 9JY       0.175100
     30 C10         -2.6010     2.1550     1.7190 cd         1 9JY       0.352900
     31 N2          -1.3810     2.2990     1.1360 nd         1 9JY      -0.791000
     32 N4          -1.9650    -0.2080    -1.4380 nd         1 9JY      -0.275600
     33 H1           7.0870    -0.1250    -0.7610 h1         1 9JY       0.086200
     34 H2           7.5000    -0.8630     0.7900 h1         1 9JY       0.086200
     35 H3           5.4280    -0.0600     2.1780 h1         1 9JY       0.051700
     36 H4           4.9720    -1.7550     2.3860 h1         1 9JY       0.051700
     37 H5           2.6000    -1.2000     2.2900 hc         1 9JY       0.055700
     38 H6           3.3860    -0.2260     3.5230 hc         1 9JY       0.055700
     39 H7           0.6450     4.5570    -2.6910 ho         1 9JY       0.447000
     40 H8          -4.5390     1.2170     1.7560 h4         1 9JY       0.157000
     41 H9          -3.3780    -1.5800    -2.2420 h4         1 9JY       0.231000
     42 H10         -6.1470     1.2380     0.0420 ha         1 9JY       0.117500
     43 H11         -8.4410     0.5460     0.4870 ha         1 9JY       0.114000
     44 H12        -10.0820    -1.8360    -0.4050 hc         1 9JY       0.044033
     45 H13         -9.5560    -3.0130     0.7890 hc         1 9JY       0.044033
     46 H14         -9.9470    -1.3640     1.2790 hc         1 9JY       0.044033
     47 H15         -7.3220    -3.5500    -0.0210 ha         1 9JY       0.114000
     48 H16         -5.0030    -2.8690    -0.4170 ha         1 9JY       0.117500
     49 H17          4.9460     1.0330    -0.0500 h1         1 9JY       0.051200
     50 H18          4.1770     0.0510    -1.3030 h1         1 9JY       0.051200
     51 H19          8.1070    -2.1020    -1.9660 hc         1 9JY       0.051033
     52 H20          9.2740    -1.2920    -0.9290 hc         1 9JY       0.051033
     53 H21          8.5550    -2.8110    -0.4070 hc         1 9JY       0.051033
     54 H22          2.1080    -0.0620    -0.0360 hc         1 9JY       0.079700
     55 H23          1.8150     1.1170     2.1040 hc         1 9JY       0.045200
     56 H24          3.4590     1.7240     2.0320 hc         1 9JY       0.045200
     57 H25          3.2370     2.7680    -0.2710 hc         1 9JY       0.055200
     58 H26          2.5710     1.8270    -1.5870 hc         1 9JY       0.055200
     59 H27          1.0470     2.7750     0.8840 h1         1 9JY       0.083700
     60 H28          1.6310     4.6290    -0.5270 h1         1 9JY       0.032700
     61 H29         -0.1030     4.3050    -0.5540 h1         1 9JY       0.032700
     62 H30          0.1820     1.0990    -1.3790 hn         1 9JY       0.524000
     63 H31         -2.7880     2.7670     2.5920 h4         1 9JY       0.027100
@<TRIPOS>BOND
     1     1    18 1   
     2     1    20 1   
     3     1    33 1   
     4     1    34 1   
     5     2     3 1   
     6     2    21 1   
     7     2    35 1   
     8     2    36 1   
     9     3    23 1   
    10     3    37 1   
    11     3    38 1   
    12     4    18 2   
    13     5    26 1   
    14     5    39 1   
    15     6    29 1   
    16     6    30 2   
    17     6    40 1   
    18     7     8 2   
    19     7    10 1   
    20     7    29 1   
    21     8    32 1   
    22     8    41 1   
    23     9    28 1   
    24     9    29 1   
    25     9    32 2   
    26    10    11 ar  
    27    10    16 ar  
    28    11    12 ar  
    29    11    42 1   
    30    12    13 ar  
    31    12    43 1   
    32    13    14 1   
    33    13    15 ar  
    34    14    44 1   
    35    14    45 1   
    36    14    46 1   
    37    15    16 ar  
    38    15    47 1   
    39    16    48 1   
    40    17    21 1   
    41    17    22 1   
    42    17    49 1   
    43    17    50 1   
    44    18    19 2   
    45    18    21 1   
    46    20    51 1   
    47    20    52 1   
    48    20    53 1   
    49    22    23 1   
    50    22    24 1   
    51    22    54 1   
    52    23    55 1   
    53    23    56 1   
    54    24    25 1   
    55    24    57 1   
    56    24    58 1   
    57    25    26 1   
    58    25    27 1   
    59    25    59 1   
    60    26    60 1   
    61    26    61 1   
    62    27    28 1   
    63    27    62 1   
    64    28    31 2   
    65    30    31 1   
    66    30    63 1   
@<TRIPOS>SUBSTRUCTURE
     1 9JY         1 TEMP              0 ****  ****    0 ROOT
