@<TRIPOS>MOLECULE
9JY
   63    66     1     0     0
SMALL
No Charge or Current Charge


@<TRIPOS>ATOM
      1 C1           7.1080    -1.1570     0.0600 c3         1 9JY      -0.341400
      2 C2           4.5110    -0.7020     2.0510 c6         1 9JY       0.196800
      3 C3           3.2420     0.0140     2.5670 c6         1 9JY      -0.074400
      4 O1           5.2480    -2.4760    -1.3470 o          1 9JY      -0.528000
      5 O2           0.8710     3.7000    -2.8250 oh         1 9JY      -0.664000
      6 C11         -3.0880     0.5130     1.4660 cc         1 9JY      -0.232000
      7 C12         -4.1310    -0.1120    -0.6340 cc         1 9JY      -0.108300
      8 C13         -3.6440    -0.0700    -1.9260 cd         1 9JY      -0.035400
      9 C14         -2.1390     0.8730    -0.6860 cc         1 9JY      -0.178000
     10 C15         -5.4510    -0.6320    -0.2720 ca         1 9JY      -0.024800
     11 C16         -6.2460     0.0180     0.6930 ca         1 9JY      -0.094000
     12 C17         -7.5150    -0.4850     1.0280 ca         1 9JY      -0.110500
     13 C18         -8.0100    -1.6420     0.4010 ca         1 9JY      -0.067300
     14 C19         -9.3850    -2.1830     0.7610 c3         1 9JY      -0.048800
     15 C20         -7.2250    -2.2870    -0.5720 ca         1 9JY      -0.110500
     16 C21         -5.9560    -1.7840    -0.9080 ca         1 9JY      -0.094000
     17 C22          4.0630     0.0610    -0.2450 c6         1 9JY       0.195800
     18 S            5.5990    -2.1520     0.0400 s6         1 9JY       1.183100
     19 O            5.7240    -3.2420     1.0150 o          1 9JY      -0.528000
     20 C            8.3510    -1.9320    -0.4370 c3         1 9JY      -0.062100
     21 N            4.3620    -1.1040     0.6290 n3         1 9JY      -0.722500
     22 C5           2.7730     0.8060     0.1980 c6         1 9JY      -0.059700
     23 C4           2.8920     1.2340     1.6860 c6         1 9JY      -0.074400
     24 C6           2.4720     2.0110    -0.7530 c3         1 9JY      -0.084400
     25 C7           1.1160     2.7370    -0.5390 c3         1 9JY       0.244500
     26 C8           0.9850     4.0200    -1.4210 c3         1 9JY       0.135600
     27 N1           0.0060     1.8160    -0.8490 nu         1 9JY      -0.907100
     28 C9          -1.0230     1.4550    -0.0420 cc         1 9JY       0.679900
     29 N3          -3.1990     0.5820     0.0850 na         1 9JY       0.175100
     30 C10         -1.9600     1.1310     2.0160 cd         1 9JY       0.352900
     31 N2          -0.9010     1.6540     1.2510 nd         1 9JY      -0.791000
     32 N4          -2.3930     0.5470    -1.9500 nd         1 9JY      -0.275600
     33 H1           6.9220    -0.2890    -0.5800 h1         1 9JY       0.086200
     34 H2           7.2550    -0.8270     1.0930 h1         1 9JY       0.086200
     35 H3           5.3740    -0.0320     2.1750 h1         1 9JY       0.051700
     36 H4           4.6880    -1.5790     2.6900 h1         1 9JY       0.051700
     37 H5           2.4010    -0.6930     2.5730 hc         1 9JY       0.055700
     38 H6           3.3920     0.3320     3.6080 hc         1 9JY       0.055700
     39 H7           0.7940     4.5520    -3.3100 ho         1 9JY       0.447000
     40 H8          -3.8840     0.0560     2.0340 h4         1 9JY       0.157000
     41 H9          -4.1140    -0.4450    -2.8310 h4         1 9JY       0.231000
     42 H10         -5.8900     0.9250     1.1760 ha         1 9JY       0.117500
     43 H11         -8.1170     0.0310     1.7740 ha         1 9JY       0.114000
     44 H12        -10.1590    -1.7390     0.1230 hc         1 9JY       0.044033
     45 H13         -9.4320    -3.2720     0.6360 hc         1 9JY       0.044033
     46 H14         -9.6420    -1.9610     1.8030 hc         1 9JY       0.044033
     47 H15         -7.5970    -3.1800    -1.0700 ha         1 9JY       0.114000
     48 H16         -5.3600    -2.3000    -1.6570 ha         1 9JY       0.117500
     49 H17          4.9050     0.7690    -0.2410 h1         1 9JY       0.051200
     50 H18          3.9240    -0.2670    -1.2850 h1         1 9JY       0.051200
     51 H19          8.2140    -2.2730    -1.4710 hc         1 9JY       0.051033
     52 H20          9.2390    -1.2890    -0.4080 hc         1 9JY       0.051033
     53 H21          8.5460    -2.8090     0.1930 hc         1 9JY       0.051033
     54 H22          1.9340     0.1040     0.1000 hc         1 9JY       0.079700
     55 H23          1.9520     1.6760     2.0410 hc         1 9JY       0.045200
     56 H24          3.6670     2.0050     1.7960 hc         1 9JY       0.045200
     57 H25          3.2760     2.7520    -0.6510 hc         1 9JY       0.055200
     58 H26          2.5160     1.6690    -1.7950 hc         1 9JY       0.055200
     59 H27          1.0700     3.0740     0.5060 h1         1 9JY       0.083700
     60 H28          1.8560     4.6650    -1.2450 h1         1 9JY       0.032700
     61 H29          0.0970     4.5760    -1.0940 h1         1 9JY       0.032700
     62 H30         -0.2590     1.7610    -1.8290 hn         1 9JY       0.524000
     63 H31         -1.8360     1.2070     3.0890 h4         1 9JY       0.027100
@<TRIPOS>BOND
     1     1    18 1   
     2     1    20 1   
     3     1    33 1   
     4     1    34 1   
     5     2     3 1   
     6     2    21 1   
     7     2    35 1   
     8     2    36 1   
     9     3    23 1   
    10     3    37 1   
    11     3    38 1   
    12     4    18 2   
    13     5    26 1   
    14     5    39 1   
    15     6    29 1   
    16     6    30 2   
    17     6    40 1   
    18     7     8 2   
    19     7    10 1   
    20     7    29 1   
    21     8    32 1   
    22     8    41 1   
    23     9    28 1   
    24     9    29 1   
    25     9    32 2   
    26    10    11 ar  
    27    10    16 ar  
    28    11    12 ar  
    29    11    42 1   
    30    12    13 ar  
    31    12    43 1   
    32    13    14 1   
    33    13    15 ar  
    34    14    44 1   
    35    14    45 1   
    36    14    46 1   
    37    15    16 ar  
    38    15    47 1   
    39    16    48 1   
    40    17    21 1   
    41    17    22 1   
    42    17    49 1   
    43    17    50 1   
    44    18    19 2   
    45    18    21 1   
    46    20    51 1   
    47    20    52 1   
    48    20    53 1   
    49    22    23 1   
    50    22    24 1   
    51    22    54 1   
    52    23    55 1   
    53    23    56 1   
    54    24    25 1   
    55    24    57 1   
    56    24    58 1   
    57    25    26 1   
    58    25    27 1   
    59    25    59 1   
    60    26    60 1   
    61    26    61 1   
    62    27    28 1   
    63    27    62 1   
    64    28    31 2   
    65    30    31 1   
    66    30    63 1   
@<TRIPOS>SUBSTRUCTURE
     1 9JY         1 TEMP              0 ****  ****    0 ROOT
