@<TRIPOS>MOLECULE
9JZ
   75    78     1     0     0
SMALL
abcg2


@<TRIPOS>ATOM
      1 O3           0.4330     0.0830     0.1320 o          1 9JZ      -0.620100
      2 C5           1.2320    -0.4440    -0.6300 c          1 9JZ       0.596100
      3 C4           2.6730    -0.6810    -0.1760 c3         1 9JZ       0.047700
      4 C12          2.7190    -1.8070     0.8670 c6         1 9JZ      -0.069700
      5 C18          4.1520    -2.0640     1.3400 c6         1 9JZ      -0.074400
      6 C17          4.2060    -3.1760     2.3830 c6         1 9JZ      -0.072900
      7 C16          3.5880    -4.4660     1.8560 c6         1 9JZ      -0.076400
      8 C15          2.1680    -4.2220     1.3600 c6         1 9JZ      -0.072900
      9 C14          2.1180    -3.1040     0.3220 c6         1 9JZ      -0.074400
     10 N2           3.1720     0.5450     0.4030 ns         1 9JZ      -0.491900
     11 C3           3.2290     1.6830    -0.3120 c          1 9JZ       0.590100
     12 O2           3.0840     1.7000    -1.5240 o          1 9JZ      -0.585100
     13 C2           3.4320     2.9400     0.5220 c3         1 9JZ       0.101500
     14 C13          2.0440     3.4830     0.8710 c3         1 9JZ      -0.091100
     15 N1           4.2080     3.9070    -0.2240 n7         1 9JZ      -0.841400
     16 C1           4.5950     5.0610     0.5640 c3         1 9JZ       0.144100
     17 N3           0.8630    -0.8610    -1.8500 n          1 9JZ      -0.387800
     18 C9           1.7180    -1.3600    -2.9240 c5         1 9JZ       0.109000
     19 C8           0.8590    -1.1570    -4.1630 c5         1 9JZ      -0.094400
     20 C7          -0.5640    -1.3550    -3.6480 c5         1 9JZ      -0.071700
     21 C28         -1.6530    -0.8170    -4.5560 c3         1 9JZ      -0.085100
     22 C6          -0.5080    -0.6600    -2.2820 c5         1 9JZ       0.027700
     23 C10         -1.4980    -1.2620    -1.2930 c          1 9JZ       0.611100
     24 O1          -1.4040    -2.4150    -0.9190 o          1 9JZ      -0.585100
     25 N4          -2.4940    -0.4130    -0.9400 ns         1 9JZ      -0.139000
     26 C11         -3.4550    -0.6700     0.0430 ca         1 9JZ       0.016000
     27 C27         -4.1470    -1.8810     0.0470 ca         1 9JZ      -0.131000
     28 C26         -5.1050    -2.1450     1.0100 ca         1 9JZ      -0.072000
     29 C25         -5.3940    -1.2020     1.9870 ca         1 9JZ      -0.146000
     30 C24         -4.7130     0.0010     1.9890 ca         1 9JZ      -0.049000
     31 C19         -3.7370     0.2930     1.0320 cp         1 9JZ      -0.194500
     32 C20         -3.0340     1.5930     1.1260 cp         1 9JZ       0.217500
     33 N6          -3.0080     2.1790     2.3200 nb         1 9JZ      -0.195000
     34 C23         -2.3860     3.3430     2.4160 ca         1 9JZ       0.127400
     35 C22         -1.7680     3.9460     1.3330 ca         1 9JZ      -0.230000
     36 C21         -1.8490     3.2650     0.1330 ca         1 9JZ       0.127400
     37 N5          -2.4850     2.1060     0.0270 nb         1 9JZ      -0.195000
     38 H4           3.3150    -0.9670    -1.0130 h1         1 9JZ       0.076700
     39 H12          2.1170    -1.4860     1.7270 hc         1 9JZ       0.066700
     40 H18          4.7630    -2.3460     0.4740 hc         1 9JZ       0.045700
     41 H18A         4.5980    -1.1550     1.7510 hc         1 9JZ       0.045700
     42 H17          5.2400    -3.3450     2.6900 hc         1 9JZ       0.041950
     43 H17A         3.6650    -2.8540     3.2800 hc         1 9JZ       0.041950
     44 H16          4.1990    -4.8510     1.0330 hc         1 9JZ       0.038700
     45 H16A         3.5930    -5.2340     2.6330 hc         1 9JZ       0.038700
     46 H15          1.7500    -5.1370     0.9360 hc         1 9JZ       0.041950
     47 H15A         1.5290    -3.9520     2.2070 hc         1 9JZ       0.041950
     48 H14          1.0850    -2.9570     0.0020 hc         1 9JZ       0.045700
     49 H14A         2.6810    -3.4090    -0.5680 hc         1 9JZ       0.045700
     50 HN2          3.1950     0.6140     1.4080 hn         1 9JZ       0.318500
     51 H2           3.9290     2.6550     1.4650 h1         1 9JZ       0.020700
     52 H13          1.5340     3.8250    -0.0310 hc         1 9JZ       0.048367
     53 H13A         1.4290     2.7120     1.3350 hc         1 9JZ       0.048367
     54 H13B         2.1070     4.3170     1.5680 hc         1 9JZ       0.048367
     55 HN1          5.0480     3.4610    -0.5690 hn         1 9JZ       0.418000
     56 H1           5.2950     5.6680    -0.0090 h1         1 9JZ       0.030367
     57 H1A          3.7300     5.6880     0.7850 h1         1 9JZ       0.030367
     58 H1B          5.0720     4.8100     1.5220 h1         1 9JZ       0.030367
     59 H9           2.6520    -0.8020    -2.9740 h1         1 9JZ       0.055700
     60 H9A          1.9560    -2.4160    -2.7740 h1         1 9JZ       0.055700
     61 H8           0.9810    -0.1380    -4.5420 hc         1 9JZ       0.059200
     62 H8A          1.1160    -1.8470    -4.9660 hc         1 9JZ       0.059200
     63 H7          -0.7220    -2.4250    -3.4820 hc         1 9JZ       0.074700
     64 H28         -1.6340    -1.3210    -5.5220 hc         1 9JZ       0.041033
     65 H28A        -2.6460    -0.9680    -4.1280 hc         1 9JZ       0.041033
     66 H28B        -1.5230     0.2520    -4.7320 hc         1 9JZ       0.041033
     67 H6          -0.7060     0.4120    -2.4110 h1         1 9JZ       0.069700
     68 HN4         -2.3250     0.5780    -1.0910 hn         1 9JZ       0.191000
     69 H27         -3.9500    -2.6140    -0.7210 ha         1 9JZ       0.133000
     70 H26         -5.6340    -3.0890     0.9890 ha         1 9JZ       0.114000
     71 H25         -6.1470    -1.3980     2.7370 ha         1 9JZ       0.116000
     72 H24         -4.9320     0.7400     2.7470 ha         1 9JZ       0.130000
     73 H23         -2.3740     3.8100     3.3940 h4         1 9JZ       0.024600
     74 H22         -1.2540     4.8910     1.4210 ha         1 9JZ       0.135000
     75 H21         -1.4000     3.6580    -0.7710 h4         1 9JZ       0.024600
@<TRIPOS>BOND
     1     1     2 2   
     2     2     3 1   
     3     2    17 1   
     4     3     4 1   
     5     3    10 1   
     6     3    38 1   
     7     4     5 1   
     8     4     9 1   
     9     4    39 1   
    10     5     6 1   
    11     5    40 1   
    12     5    41 1   
    13     6     7 1   
    14     6    42 1   
    15     6    43 1   
    16     7     8 1   
    17     7    44 1   
    18     7    45 1   
    19     8     9 1   
    20     8    46 1   
    21     8    47 1   
    22     9    48 1   
    23     9    49 1   
    24    10    11 1   
    25    10    50 1   
    26    11    12 2   
    27    11    13 1   
    28    13    14 1   
    29    13    15 1   
    30    13    51 1   
    31    14    52 1   
    32    14    53 1   
    33    14    54 1   
    34    15    16 1   
    35    15    55 1   
    36    16    56 1   
    37    16    57 1   
    38    16    58 1   
    39    17    18 1   
    40    17    22 1   
    41    18    19 1   
    42    18    59 1   
    43    18    60 1   
    44    19    20 1   
    45    19    61 1   
    46    19    62 1   
    47    20    21 1   
    48    20    22 1   
    49    20    63 1   
    50    21    64 1   
    51    21    65 1   
    52    21    66 1   
    53    22    23 1   
    54    22    67 1   
    55    23    24 2   
    56    23    25 1   
    57    25    26 1   
    58    25    68 1   
    59    26    27 ar  
    60    26    31 ar  
    61    27    28 ar  
    62    27    69 1   
    63    28    29 ar  
    64    28    70 1   
    65    29    30 ar  
    66    29    71 1   
    67    30    31 ar  
    68    30    72 1   
    69    31    32 1   
    70    32    33 ar  
    71    32    37 ar  
    72    33    34 ar  
    73    34    35 ar  
    74    34    73 1   
    75    35    36 ar  
    76    35    74 1   
    77    36    37 ar  
    78    36    75 1   
@<TRIPOS>SUBSTRUCTURE
     1 9JZ         1 TEMP              0 ****  ****    0 ROOT
