@<TRIPOS>MOLECULE
9JZ
   75    78     1     0     0
SMALL
No Charge or Current Charge


@<TRIPOS>ATOM
      1 O3           0.7050     0.6670     0.5960 o          1 9JZ      -0.620100
      2 C5           1.3220     0.0780    -0.2880 c          1 9JZ       0.596100
      3 C4           2.8600    -0.1870    -0.1530 c3         1 9JZ       0.047700
      4 C12          3.2040    -1.5670     0.5240 c6         1 9JZ      -0.069700
      5 C18          4.7360    -1.7610     0.7520 c6         1 9JZ      -0.074400
      6 C17          5.0550    -3.1090     1.4460 c6         1 9JZ      -0.072900
      7 C16          4.4730    -4.3020     0.6540 c6         1 9JZ      -0.076400
      8 C15          2.9520    -4.1290     0.4400 c6         1 9JZ      -0.072900
      9 C14          2.6350    -2.7870    -0.2620 c6         1 9JZ      -0.074400
     10 N2           3.4630     0.9440     0.5930 ns         1 9JZ      -0.491900
     11 C3           4.6260     1.6030     0.2460 c          1 9JZ       0.590100
     12 O2           5.2770     1.2890    -0.7450 o          1 9JZ      -0.585100
     13 C2           5.0360     2.7730     1.2140 c3         1 9JZ       0.101500
     14 C13          5.1230     4.1090     0.4370 c3         1 9JZ      -0.091100
     15 N1           6.3100     2.5070     1.9610 n7         1 9JZ      -0.841400
     16 C1           6.6110     3.4090     3.0940 c3         1 9JZ       0.144100
     17 N3           0.6250    -0.4060    -1.4200 n          1 9JZ      -0.387800
     18 C9           1.2740    -0.6900    -2.7200 c5         1 9JZ       0.109000
     19 C8           0.0860    -0.5590    -3.7040 c5         1 9JZ      -0.094400
     20 C7          -1.0970    -1.1040    -2.8650 c5         1 9JZ      -0.071700
     21 C28         -2.4790    -0.8690    -3.5180 c3         1 9JZ      -0.085100
     22 C6          -0.8630    -0.3620    -1.5090 c5         1 9JZ       0.027700
     23 C10         -1.6080    -1.1250    -0.3640 c          1 9JZ       0.611100
     24 O1          -1.1610    -2.0460     0.3140 o          1 9JZ      -0.585100
     25 N4          -2.8690    -0.5640    -0.2250 ns         1 9JZ      -0.139000
     26 C11         -3.9660    -0.8570     0.6310 ca         1 9JZ       0.016000
     27 C27         -4.0050    -2.0270     1.4230 ca         1 9JZ      -0.131000
     28 C26         -5.0770    -2.2660     2.2940 ca         1 9JZ      -0.072000
     29 C25         -6.1210    -1.3380     2.3880 ca         1 9JZ      -0.146000
     30 C24         -6.1000    -0.1760     1.6020 ca         1 9JZ      -0.049000
     31 C19         -5.0370     0.0910     0.6980 cp         1 9JZ      -0.194500
     32 C20         -5.0910     1.3520    -0.1280 cp         1 9JZ       0.217500
     33 N6          -5.5520     2.4660     0.4830 nb         1 9JZ      -0.195000
     34 C23         -5.6280     3.5970    -0.2450 ca         1 9JZ       0.127400
     35 C22         -5.2440     3.6210    -1.5950 ca         1 9JZ      -0.230000
     36 C21         -4.7800     2.4210    -2.1560 ca         1 9JZ       0.127400
     37 N5          -4.7060     1.2920    -1.4240 nb         1 9JZ      -0.195000
     38 H4           3.2890    -0.1960    -1.1610 h1         1 9JZ       0.076700
     39 H12          2.7170    -1.5440     1.5100 hc         1 9JZ       0.066700
     40 H18          5.2650    -1.7080    -0.2100 hc         1 9JZ       0.045700
     41 H18A         5.1400    -0.9520     1.3740 hc         1 9JZ       0.045700
     42 H17          6.1420    -3.2260     1.5490 hc         1 9JZ       0.041950
     43 H17A         4.6440    -3.1060     2.4650 hc         1 9JZ       0.041950
     44 H16          4.9780    -4.3840    -0.3190 hc         1 9JZ       0.038700
     45 H16A         4.6710    -5.2400     1.1910 hc         1 9JZ       0.038700
     46 H15          2.5640    -4.9640    -0.1590 hc         1 9JZ       0.041950
     47 H15A         2.4340    -4.1730     1.4080 hc         1 9JZ       0.041950
     48 H14          1.5460    -2.7040    -0.3710 hc         1 9JZ       0.045700
     49 H14A         3.0550    -2.8040    -1.2770 hc         1 9JZ       0.045700
     50 HN2          2.9710     1.2870     1.4110 hn         1 9JZ       0.318500
     51 H2           4.2170     2.8720     1.9400 h1         1 9JZ       0.020700
     52 H13          5.9670     4.0990    -0.2630 hc         1 9JZ       0.048367
     53 H13A         4.2040     4.2740    -0.1380 hc         1 9JZ       0.048367
     54 H13B         5.2450     4.9600     1.1170 hc         1 9JZ       0.048367
     55 HN1          6.2660     1.5490     2.3370 hn         1 9JZ       0.418000
     56 H1           7.5370     3.0980     3.5950 h1         1 9JZ       0.030367
     57 H1A          6.7470     4.4450     2.7550 h1         1 9JZ       0.030367
     58 H1B          5.8010     3.3910     3.8350 h1         1 9JZ       0.030367
     59 H9           2.0730     0.0230    -2.9620 h1         1 9JZ       0.055700
     60 H9A          1.6890    -1.7050    -2.7380 h1         1 9JZ       0.055700
     61 H8          -0.0740     0.4880    -3.9860 hc         1 9JZ       0.059200
     62 H8A          0.2500    -1.1250    -4.6290 hc         1 9JZ       0.059200
     63 H7          -0.9890    -2.1890    -2.7340 hc         1 9JZ       0.074700
     64 H28         -2.5280    -1.3400    -4.5070 hc         1 9JZ       0.041033
     65 H28A        -3.2870    -1.2960    -2.9120 hc         1 9JZ       0.041033
     66 H28B        -2.6820     0.2010    -3.6480 hc         1 9JZ       0.041033
     67 H6          -1.2080     0.6800    -1.5490 h1         1 9JZ       0.069700
     68 HN4         -3.0460     0.2070    -0.8560 hn         1 9JZ       0.191000
     69 H27         -3.2140    -2.7680     1.3750 ha         1 9JZ       0.133000
     70 H26         -5.0960    -3.1700     2.8990 ha         1 9JZ       0.114000
     71 H25         -6.9520    -1.5210     3.0660 ha         1 9JZ       0.116000
     72 H24         -6.9330     0.5200     1.6850 ha         1 9JZ       0.130000
     73 H23         -5.9990     4.4880     0.2590 h4         1 9JZ       0.024600
     74 H22         -5.3040     4.5330    -2.1830 ha         1 9JZ       0.135000
     75 H21         -4.4660     2.3600    -3.1970 h4         1 9JZ       0.024600
@<TRIPOS>BOND
     1     1     2 2   
     2     2     3 1   
     3     2    17 1   
     4     3     4 1   
     5     3    10 1   
     6     3    38 1   
     7     4     5 1   
     8     4     9 1   
     9     4    39 1   
    10     5     6 1   
    11     5    40 1   
    12     5    41 1   
    13     6     7 1   
    14     6    42 1   
    15     6    43 1   
    16     7     8 1   
    17     7    44 1   
    18     7    45 1   
    19     8     9 1   
    20     8    46 1   
    21     8    47 1   
    22     9    48 1   
    23     9    49 1   
    24    10    11 1   
    25    10    50 1   
    26    11    12 2   
    27    11    13 1   
    28    13    14 1   
    29    13    15 1   
    30    13    51 1   
    31    14    52 1   
    32    14    53 1   
    33    14    54 1   
    34    15    16 1   
    35    15    55 1   
    36    16    56 1   
    37    16    57 1   
    38    16    58 1   
    39    17    18 1   
    40    17    22 1   
    41    18    19 1   
    42    18    59 1   
    43    18    60 1   
    44    19    20 1   
    45    19    61 1   
    46    19    62 1   
    47    20    21 1   
    48    20    22 1   
    49    20    63 1   
    50    21    64 1   
    51    21    65 1   
    52    21    66 1   
    53    22    23 1   
    54    22    67 1   
    55    23    24 2   
    56    23    25 1   
    57    25    26 1   
    58    25    68 1   
    59    26    27 ar  
    60    26    31 ar  
    61    27    28 ar  
    62    27    69 1   
    63    28    29 ar  
    64    28    70 1   
    65    29    30 ar  
    66    29    71 1   
    67    30    31 ar  
    68    30    72 1   
    69    31    32 1   
    70    32    33 ar  
    71    32    37 ar  
    72    33    34 ar  
    73    34    35 ar  
    74    34    73 1   
    75    35    36 ar  
    76    35    74 1   
    77    36    37 ar  
    78    36    75 1   
@<TRIPOS>SUBSTRUCTURE
     1 9JZ         1 TEMP              0 ****  ****    0 ROOT
