@<TRIPOS>MOLECULE
9K0
   67    69     1     0     0
SMALL
abcg2


@<TRIPOS>ATOM
      1 O2           7.1070     1.6920     1.4150 o          1 9K0      -0.526100
      2 C23          7.2650     1.2920     0.2800 c          1 9K0       0.567300
      3 C24          8.4890     1.6090    -0.5000 ce         1 9K0      -0.320200
      4 C25          9.4720     2.3610    -0.0130 c2         1 9K0      -0.232000
      5 C22          6.2510     0.4410    -0.4350 c3         1 9K0      -0.175400
      6 C20          4.9950     0.1380     0.3650 c3         1 9K0      -0.067400
      7 C18          3.9040    -0.5890    -0.4350 c3         1 9K0      -0.049700
      8 C19          4.4100    -1.9350    -0.9460 c3         1 9K0      -0.087100
      9 C16          2.6340    -0.7060     0.4240 c5         1 9K0      -0.053700
     10 C15          2.1120     0.6850     0.8750 c5         1 9K0      -0.078400
     11 C14          0.5770     0.5950     0.9600 c5         1 9K0      -0.071400
     12 C9           0.2930    -0.8890     0.7960 c5         1 9K0      -0.035500
     13 C10          1.3830    -1.3830    -0.1890 c5         1 9K0      -0.036000
     14 C17          1.1290    -0.8560    -1.6030 c3         1 9K0      -0.079100
     15 C11          1.3590    -2.9130    -0.1650 c6         1 9K0      -0.062400
     16 C12         -0.0250    -3.4570    -0.5200 c6         1 9K0      -0.072400
     17 C13         -1.1390    -2.8690     0.3540 c6         1 9K0      -0.041200
     18 C8          -1.0750    -1.3670     0.4160 c2         1 9K0      -0.080400
     19 C7          -2.0950    -0.5310     0.1680 ce         1 9K0      -0.190000
     20 C6          -3.4420    -0.8990    -0.2320 ce         1 9K0      -0.161000
     21 C5          -4.4490    -0.0560    -0.5050 c2         1 9K0      -0.105400
     22 C           -5.7970    -0.5630    -0.9320 c6         1 9K0      -0.032700
     23 C4          -4.3700     1.4420    -0.4290 c6         1 9K0      -0.032700
     24 C3          -5.4650     1.9990     0.4880 c6         1 9K0       0.212000
     25 O           -5.3570     3.4000     0.4860 oh         1 9K0      -0.654000
     26 C2          -6.8060     1.4900     0.0230 c2         1 9K0      -0.199400
     27 C21         -7.8070     2.2760    -0.3550 c2         1 9K0      -0.297000
     28 C1          -6.9100    -0.0140    -0.0410 c6         1 9K0       0.212000
     29 O1          -6.7590    -0.5980     1.2380 oh         1 9K0      -0.654000
     30 H1           8.5580     1.2020    -1.5030 ha         1 9K0       0.179000
     31 H3          10.3540     2.5810    -0.5980 ha         1 9K0       0.173500
     32 H4           9.4270     2.7820     0.9840 ha         1 9K0       0.173500
     33 H6           6.0020     0.9470    -1.3760 hc         1 9K0       0.060200
     34 H7           6.7710    -0.4720    -0.7460 hc         1 9K0       0.060200
     35 H8           5.2530    -0.4570     1.2470 hc         1 9K0       0.052700
     36 H9           4.5980     1.0820     0.7430 hc         1 9K0       0.052700
     37 H10          3.6610     0.0390    -1.3030 hc         1 9K0       0.045700
     38 H11          3.7180    -2.3890    -1.6540 hc         1 9K0       0.032033
     39 H12          5.3620    -1.8370    -1.4680 hc         1 9K0       0.032033
     40 H13          4.5560    -2.6420    -0.1250 hc         1 9K0       0.032033
     41 H14          2.8990    -1.2840     1.3210 hc         1 9K0       0.046700
     42 H15          2.5500     0.9740     1.8310 hc         1 9K0       0.043200
     43 H16          2.4080     1.4520     0.1550 hc         1 9K0       0.043200
     44 H17          0.1830     0.9870     1.8980 hc         1 9K0       0.044700
     45 H18          0.1160     1.1770     0.1590 hc         1 9K0       0.044700
     46 H19          0.5360    -1.3720     1.7560 hc         1 9K0       0.053700
     47 H20          1.2520     0.2270    -1.6660 hc         1 9K0       0.033700
     48 H21          1.8270    -1.3010    -2.3150 hc         1 9K0       0.033700
     49 H22          0.1220    -1.0820    -1.9550 hc         1 9K0       0.033700
     50 H23          2.0930    -3.3410    -0.8490 hc         1 9K0       0.040200
     51 H24          1.6350    -3.2530     0.8400 hc         1 9K0       0.040200
     52 H25         -0.2440    -3.2530    -1.5720 hc         1 9K0       0.039700
     53 H26         -0.0290    -4.5450    -0.4170 hc         1 9K0       0.039700
     54 H27         -2.1070    -3.2300     0.0080 hc         1 9K0       0.046700
     55 H28         -1.0130    -3.2520     1.3740 hc         1 9K0       0.046700
     56 H29         -1.8990     0.5300     0.2740 ha         1 9K0       0.172000
     57 H30         -3.6530    -1.9580    -0.3380 ha         1 9K0       0.170000
     58 H31         -6.0080    -0.2330    -1.9550 hc         1 9K0       0.058450
     59 H32         -5.8280    -1.6550    -0.9350 hc         1 9K0       0.058450
     60 H33         -3.4000     1.7900    -0.0770 hc         1 9K0       0.058450
     61 H34         -4.5210     1.8600    -1.4330 hc         1 9K0       0.058450
     62 H35         -5.2810     1.6030     1.4970 h1         1 9K0       0.042700
     63 H36         -5.9130     3.7500     1.1880 ho         1 9K0       0.441500
     64 H37         -7.7380     3.3560    -0.3480 ha         1 9K0       0.167500
     65 H38         -8.7450     1.8570    -0.6980 ha         1 9K0       0.167500
     66 H39         -7.8780    -0.2860    -0.4820 h1         1 9K0       0.042700
     67 H40         -7.4630    -0.2610     1.8020 ho         1 9K0       0.441500
@<TRIPOS>BOND
     1     1     2 2   
     2     2     3 1   
     3     2     5 1   
     4     3     4 2   
     5     3    30 1   
     6     4    31 1   
     7     4    32 1   
     8     5     6 1   
     9     5    33 1   
    10     5    34 1   
    11     6     7 1   
    12     6    35 1   
    13     6    36 1   
    14     7     8 1   
    15     7     9 1   
    16     7    37 1   
    17     8    38 1   
    18     8    39 1   
    19     8    40 1   
    20     9    10 1   
    21     9    13 1   
    22     9    41 1   
    23    10    11 1   
    24    10    42 1   
    25    10    43 1   
    26    11    12 1   
    27    11    44 1   
    28    11    45 1   
    29    12    13 1   
    30    12    18 1   
    31    12    46 1   
    32    13    14 1   
    33    13    15 1   
    34    14    47 1   
    35    14    48 1   
    36    14    49 1   
    37    15    16 1   
    38    15    50 1   
    39    15    51 1   
    40    16    17 1   
    41    16    52 1   
    42    16    53 1   
    43    17    18 1   
    44    17    54 1   
    45    17    55 1   
    46    18    19 2   
    47    19    20 1   
    48    19    56 1   
    49    20    21 2   
    50    20    57 1   
    51    21    22 1   
    52    21    23 1   
    53    22    28 1   
    54    22    58 1   
    55    22    59 1   
    56    23    24 1   
    57    23    60 1   
    58    23    61 1   
    59    24    25 1   
    60    24    26 1   
    61    24    62 1   
    62    25    63 1   
    63    26    27 2   
    64    26    28 1   
    65    27    64 1   
    66    27    65 1   
    67    28    29 1   
    68    28    66 1   
    69    29    67 1   
@<TRIPOS>SUBSTRUCTURE
     1 9K0         1 TEMP              0 ****  ****    0 ROOT
