@<TRIPOS>MOLECULE
9K0
   67    69     1     0     0
SMALL
No Charge or Current Charge


@<TRIPOS>ATOM
      1 O2           8.2570     0.5550     1.2300 o          1 9K0      -0.526100
      2 C23          7.5130     0.9780     0.3550 c          1 9K0       0.567300
      3 C24          7.4410     2.4350     0.0190 ce         1 9K0      -0.320200
      4 C25          8.1750     3.4000     0.6270 c2         1 9K0      -0.232000
      5 C22          6.5980     0.0340    -0.4350 c3         1 9K0      -0.175400
      6 C20          5.2500    -0.1840     0.3050 c3         1 9K0      -0.067400
      7 C18          4.1300    -0.8990    -0.5190 c3         1 9K0      -0.049700
      8 C19          4.5690    -2.3360    -0.9020 c3         1 9K0      -0.087100
      9 C16          2.7430    -0.8580     0.2730 c5         1 9K0      -0.053700
     10 C15          2.2390     0.6160     0.5250 c5         1 9K0      -0.078400
     11 C14          0.6790     0.5600     0.5320 c5         1 9K0      -0.071400
     12 C9           0.4090    -0.9650     0.6330 c5         1 9K0      -0.035500
     13 C10          1.4520    -1.5440    -0.3850 c5         1 9K0      -0.036000
     14 C17          1.1760    -1.1480    -1.9010 c3         1 9K0      -0.079100
     15 C11          1.3980    -3.1050    -0.2700 c6         1 9K0      -0.062400
     16 C12         -0.0100    -3.6750    -0.6000 c6         1 9K0      -0.072400
     17 C13         -1.1420    -3.0080     0.2230 c6         1 9K0      -0.041200
     18 C8          -1.0060    -1.4830     0.2900 c2         1 9K0      -0.080400
     19 C7          -2.0240    -0.5840     0.1710 ce         1 9K0      -0.190000
     20 C6          -3.4460    -0.9170    -0.0620 ce         1 9K0      -0.161000
     21 C5          -4.4420    -0.0490    -0.3770 c2         1 9K0      -0.105400
     22 C           -5.8810    -0.5280    -0.5670 c6         1 9K0      -0.032700
     23 C4          -4.2960     1.4590    -0.5980 c6         1 9K0      -0.032700
     24 C3          -5.2540     2.2500     0.3240 c6         1 9K0       0.212000
     25 O           -5.1220     3.6510     0.0700 oh         1 9K0      -0.654000
     26 C2          -6.7080     1.7810     0.1430 c2         1 9K0      -0.199400
     27 C21         -7.7550     2.5920    -0.1220 c2         1 9K0      -0.297000
     28 C1          -6.8960     0.2720     0.2920 c6         1 9K0       0.212000
     29 O1          -6.7770    -0.0720     1.6730 oh         1 9K0      -0.654000
     30 H1           6.7370     2.7000    -0.7690 ha         1 9K0       0.179000
     31 H3           8.0840     4.4510     0.3470 ha         1 9K0       0.173500
     32 H4           8.8880     3.1730     1.4220 ha         1 9K0       0.173500
     33 H6           6.3710     0.4850    -1.4080 hc         1 9K0       0.060200
     34 H7           7.1120    -0.9250    -0.5630 hc         1 9K0       0.060200
     35 H8           5.4340    -0.7430     1.2310 hc         1 9K0       0.052700
     36 H9           4.8900     0.8050     0.6130 hc         1 9K0       0.052700
     37 H10          4.0740    -0.3490    -1.4830 hc         1 9K0       0.045700
     38 H11          3.9370    -2.7280    -1.7050 hc         1 9K0       0.032033
     39 H12          5.5910    -2.3640    -1.2920 hc         1 9K0       0.032033
     40 H13          4.5140    -3.0100    -0.0390 hc         1 9K0       0.032033
     41 H14          2.9480    -1.3350     1.2400 hc         1 9K0       0.046700
     42 H15          2.6240     1.0030     1.4750 hc         1 9K0       0.043200
     43 H16          2.5860     1.3050    -0.2540 hc         1 9K0       0.043200
     44 H17          0.2530     1.1130     1.3770 hc         1 9K0       0.044700
     45 H18          0.2710     1.0030    -0.3830 hc         1 9K0       0.044700
     46 H19          0.6410    -1.2960     1.6540 hc         1 9K0       0.053700
     47 H20          1.3860    -0.0900    -2.0970 hc         1 9K0       0.033700
     48 H21          1.8180    -1.7210    -2.5800 hc         1 9K0       0.033700
     49 H22          0.1370    -1.3280    -2.1990 hc         1 9K0       0.033700
     50 H23          2.1200    -3.5840    -0.9380 hc         1 9K0       0.040200
     51 H24          1.6800    -3.4060     0.7480 hc         1 9K0       0.040200
     52 H25         -0.2190    -3.5550    -1.6710 hc         1 9K0       0.039700
     53 H26         -0.0180    -4.7590    -0.4190 hc         1 9K0       0.039700
     54 H27         -2.1010    -3.3200    -0.2050 hc         1 9K0       0.046700
     55 H28         -1.1210    -3.4040     1.2470 hc         1 9K0       0.046700
     56 H29         -1.8210     0.4750     0.2860 ha         1 9K0       0.172000
     57 H30         -3.7150    -1.9650     0.0550 ha         1 9K0       0.170000
     58 H31         -6.1510    -0.4180    -1.6260 hc         1 9K0       0.058450
     59 H32         -5.9740    -1.5990    -0.3440 hc         1 9K0       0.058450
     60 H33         -3.2710     1.8110    -0.4430 hc         1 9K0       0.058450
     61 H34         -4.5310     1.6880    -1.6470 hc         1 9K0       0.058450
     62 H35         -4.9580     2.0430     1.3630 h1         1 9K0       0.042700
     63 H36         -5.7320     4.0940     0.6980 ho         1 9K0       0.441500
     64 H37         -7.6560     3.6700    -0.2430 ha         1 9K0       0.167500
     65 H38         -8.7650     2.1970    -0.2380 ha         1 9K0       0.167500
     66 H39         -7.9050     0.0030    -0.0580 h1         1 9K0       0.042700
     67 H40         -7.3790     0.5380     2.1520 ho         1 9K0       0.441500
@<TRIPOS>BOND
     1     1     2 2   
     2     2     3 1   
     3     2     5 1   
     4     3     4 2   
     5     3    30 1   
     6     4    31 1   
     7     4    32 1   
     8     5     6 1   
     9     5    33 1   
    10     5    34 1   
    11     6     7 1   
    12     6    35 1   
    13     6    36 1   
    14     7     8 1   
    15     7     9 1   
    16     7    37 1   
    17     8    38 1   
    18     8    39 1   
    19     8    40 1   
    20     9    10 1   
    21     9    13 1   
    22     9    41 1   
    23    10    11 1   
    24    10    42 1   
    25    10    43 1   
    26    11    12 1   
    27    11    44 1   
    28    11    45 1   
    29    12    13 1   
    30    12    18 1   
    31    12    46 1   
    32    13    14 1   
    33    13    15 1   
    34    14    47 1   
    35    14    48 1   
    36    14    49 1   
    37    15    16 1   
    38    15    50 1   
    39    15    51 1   
    40    16    17 1   
    41    16    52 1   
    42    16    53 1   
    43    17    18 1   
    44    17    54 1   
    45    17    55 1   
    46    18    19 2   
    47    19    20 1   
    48    19    56 1   
    49    20    21 2   
    50    20    57 1   
    51    21    22 1   
    52    21    23 1   
    53    22    28 1   
    54    22    58 1   
    55    22    59 1   
    56    23    24 1   
    57    23    60 1   
    58    23    61 1   
    59    24    25 1   
    60    24    26 1   
    61    24    62 1   
    62    25    63 1   
    63    26    27 2   
    64    26    28 1   
    65    27    64 1   
    66    27    65 1   
    67    28    29 1   
    68    28    66 1   
    69    29    67 1   
@<TRIPOS>SUBSTRUCTURE
     1 9K0         1 TEMP              0 ****  ****    0 ROOT
