@<TRIPOS>MOLECULE
9K1
   48    51     1     0     0
SMALL
No Charge or Current Charge


@<TRIPOS>ATOM
      1 C1           0.1170    -1.2830     0.3760 cc         1 9K1      -0.179000
      2 C3          -0.9430    -0.7670    -1.6960 cc         1 9K1      -0.235000
      3 C12          3.7270    -1.7890     0.0900 c3         1 9K1       0.236500
      4 C13          4.6640    -2.8800     0.6990 c3         1 9K1       0.152600
      5 C15          4.0560    -0.3640     0.6250 c3         1 9K1      -0.048100
      6 C16         -3.3460     1.2340    -0.6860 ca         1 9K1      -0.095500
      7 C17         -4.5840     1.8610    -0.9120 ca         1 9K1      -0.110000
      8 C18         -5.7280     1.4520    -0.2030 ca         1 9K1      -0.068300
      9 C19         -5.6180     0.4160     0.7420 ca         1 9K1      -0.110000
     10 C20         -4.3800    -0.2110     0.9680 ca         1 9K1      -0.095500
     11 C21         -7.0660     2.1340    -0.4450 c3         1 9K1      -0.048800
     12 C22          3.1850     0.7410     0.0250 ca         1 9K1      -0.132300
     13 C23          3.3420     1.1350    -1.3210 ca         1 9K1       0.350900
     14 C25          1.6180     2.6740    -1.1670 ca         1 9K1       0.331900
     15 C26          1.3860     2.3440     0.1790 ca         1 9K1      -0.164000
     16 C27          2.1840     1.3650     0.7930 ca         1 9K1      -0.070000
     17 N2          -0.8770    -0.7020    -0.3120 na         1 9K1       0.180100
     18 C4           0.2310    -1.1720    -2.3420 cd         1 9K1       0.359900
     19 N5           1.3860    -1.6110    -1.6700 nd         1 9K1      -0.772000
     20 C6           1.2570    -1.6660    -0.3640 cc         1 9K1       0.677900
     21 N7          -0.1910    -1.3220     1.6690 nd         1 9K1      -0.283600
     22 C8          -1.4870    -0.8110     1.7550 cd         1 9K1      -0.037400
     23 C9          -1.9490    -0.4660     0.5000 cc         1 9K1      -0.112300
     24 C10         -3.2350     0.1860     0.2500 ca         1 9K1      -0.022800
     25 N11          2.3120    -2.1200     0.3560 nu         1 9K1      -0.908100
     26 O14          4.4640    -3.0310     2.1220 oh         1 9K1      -0.667000
     27 N24          2.5820     2.0880    -1.9120 nb         1 9K1      -0.666000
     28 H28         -1.8530    -0.4680    -2.1920 h4         1 9K1       0.157000
     29 H32          3.9120    -1.7870    -0.9950 h1         1 9K1       0.090700
     30 H33          4.4670    -3.8330     0.1900 h1         1 9K1       0.032700
     31 H34          5.7080    -2.6090     0.4890 h1         1 9K1       0.032700
     32 H37          3.9660    -0.3600     1.7180 hc         1 9K1       0.062200
     33 H36          5.1110    -0.1480     0.4130 hc         1 9K1       0.062200
     34 H38         -2.4700     1.5780    -1.2300 ha         1 9K1       0.117000
     35 H39         -4.6510     2.6700    -1.6360 ha         1 9K1       0.113500
     36 H40         -6.4930     0.0930     1.3020 ha         1 9K1       0.113500
     37 H41         -4.3160    -1.0150     1.6970 ha         1 9K1       0.117000
     38 H42         -7.9020     1.4460    -0.2700 hc         1 9K1       0.044033
     39 H44         -7.1930     2.9920     0.2250 hc         1 9K1       0.044033
     40 H43         -7.1490     2.4970    -1.4760 hc         1 9K1       0.044033
     41 H45          4.1030     0.6710    -1.9480 h4         1 9K1       0.015100
     42 H46          1.0130     3.4320    -1.6640 h4         1 9K1       0.015100
     43 H47          0.5950     2.8420     0.7320 ha         1 9K1       0.124000
     44 H48          2.0150     1.0880     1.8310 ha         1 9K1       0.123000
     45 H29          0.2920    -1.1840    -3.4230 h4         1 9K1       0.031100
     46 H30         -2.0020    -0.7150     2.7070 h4         1 9K1       0.229000
     47 H31          2.0630    -2.1930     1.3380 hn         1 9K1       0.521000
     48 H35          5.0450    -3.7670     2.4170 ho         1 9K1       0.449000
@<TRIPOS>BOND
     1     1    17 1   
     2     1    20 1   
     3     1    21 2   
     4     2    17 1   
     5     2    18 2   
     6     2    28 1   
     7     3     4 1   
     8     3     5 1   
     9     3    25 1   
    10     3    29 1   
    11     4    26 1   
    12     4    30 1   
    13     4    31 1   
    14     5    12 1   
    15     5    32 1   
    16     5    33 1   
    17     6     7 ar  
    18     6    24 ar  
    19     6    34 1   
    20     7     8 ar  
    21     7    35 1   
    22     8     9 ar  
    23     8    11 1   
    24     9    10 ar  
    25     9    36 1   
    26    10    24 ar  
    27    10    37 1   
    28    11    38 1   
    29    11    39 1   
    30    11    40 1   
    31    12    13 ar  
    32    12    16 ar  
    33    13    27 ar  
    34    13    41 1   
    35    14    15 ar  
    36    14    27 ar  
    37    14    42 1   
    38    15    16 ar  
    39    15    43 1   
    40    16    44 1   
    41    17    23 1   
    42    18    19 1   
    43    18    45 1   
    44    19    20 2   
    45    20    25 1   
    46    21    22 1   
    47    22    23 2   
    48    22    46 1   
    49    23    24 1   
    50    25    47 1   
    51    26    48 1   
@<TRIPOS>SUBSTRUCTURE
     1 9K1         1 TEMP              0 ****  ****    0 ROOT
