@<TRIPOS>MOLECULE
9K1
   48    51     1     0     0
SMALL
bcc


@<TRIPOS>ATOM
      1 C1          -0.0060    -1.0140     0.5120 cc         1 9K1      -0.193600
      2 C3          -0.9720    -0.4290    -1.5870 cc         1 9K1      -0.267600
      3 C12          3.6140    -1.8000     0.1140 c3         1 9K1       0.236500
      4 C13          4.3090    -3.0260     0.6810 c3         1 9K1       0.129400
      5 C15          4.3650    -0.4960     0.4500 c3         1 9K1      -0.048100
      6 C16         -3.5870     1.2430    -0.5670 ca         1 9K1      -0.113500
      7 C17         -4.8560     1.7250    -0.8490 ca         1 9K1      -0.128000
      8 C18         -5.9870     1.1840    -0.2430 ca         1 9K1      -0.068300
      9 C19         -5.8050     0.1350     0.6560 ca         1 9K1      -0.128000
     10 C20         -4.5420    -0.3630     0.9320 ca         1 9K1      -0.113500
     11 C21         -7.3550     1.7320    -0.5250 c3         1 9K1      -0.048800
     12 C22          3.6480     0.6980    -0.1000 ca         1 9K1      -0.197600
     13 C23          3.8560     1.1190    -1.4100 ca         1 9K1       0.416200
     14 C25          2.2500     2.7230    -1.2820 ca         1 9K1       0.397200
     15 C26          1.9650     2.3990     0.0350 ca         1 9K1      -0.247300
     16 C27          2.6810     1.3740     0.6330 ca         1 9K1      -0.088000
     17 N2          -1.0660    -0.5520    -0.2160 na         1 9K1       0.078700
     18 C4           0.2140    -0.7510    -2.1500 cd         1 9K1       0.425200
     19 N5           1.3080    -1.1830    -1.4720 nd         1 9K1      -0.772000
     20 C6           1.2150    -1.3140    -0.1740 cc         1 9K1       0.743200
     21 N7          -0.2880    -1.1000     1.7960 nd         1 9K1      -0.283600
     22 C8          -1.5670    -0.6860     1.8980 cd         1 9K1       0.012600
     23 C9          -2.0890    -0.3300     0.6690 cc         1 9K1      -0.112300
     24 C10         -3.4100     0.1840     0.3250 ca         1 9K1      -0.022800
     25 N11          2.2460    -1.7480     0.5770 nu         1 9K1      -0.852900
     26 O14          4.3040    -2.9420     2.0880 oh         1 9K1      -0.604800
     27 N24          3.1860     2.1030    -1.9930 nb         1 9K1      -0.666000
     28 H28         -1.8380    -0.1000    -2.1370 h4         1 9K1       0.175000
     29 H32          3.5920    -1.9180    -0.9700 h1         1 9K1       0.090700
     30 H33          3.7830    -3.9200     0.3260 h1         1 9K1       0.032700
     31 H34          5.3280    -3.0670     0.2780 h1         1 9K1       0.032700
     32 H37          4.4700    -0.4010     1.5330 hc         1 9K1       0.062200
     33 H36          5.3740    -0.5640     0.0350 hc         1 9K1       0.062200
     34 H38         -2.7320     1.7180    -1.0310 ha         1 9K1       0.135000
     35 H39         -4.9630     2.5450    -1.5480 ha         1 9K1       0.131500
     36 H40         -6.6650    -0.3110     1.1410 ha         1 9K1       0.131500
     37 H41         -4.4340    -1.1940     1.6180 ha         1 9K1       0.135000
     38 H42         -8.1130     0.9500    -0.5000 hc         1 9K1       0.044033
     39 H44         -7.6370     2.4780     0.2210 hc         1 9K1       0.044033
     40 H43         -7.3990     2.2160    -1.5000 hc         1 9K1       0.044033
     41 H45          4.6080     0.6240    -2.0180 h4         1 9K1       0.015100
     42 H46          1.7060     3.5170    -1.7810 h4         1 9K1       0.015100
     43 H47          1.1990     2.9370     0.5770 ha         1 9K1       0.142000
     44 H48          2.4800     1.0960     1.6610 ha         1 9K1       0.141000
     45 H29          0.3190    -0.6660    -3.2240 h4         1 9K1       0.031100
     46 H30         -2.0780    -0.6340     2.8480 h4         1 9K1       0.179000
     47 H31          2.1000    -1.7540     1.5750 hn         1 9K1       0.465800
     48 H35          4.6350    -3.7720     2.4440 ho         1 9K1       0.410000
@<TRIPOS>BOND
     1     1    17 1   
     2     1    20 1   
     3     1    21 2   
     4     2    17 1   
     5     2    18 2   
     6     2    28 1   
     7     3     4 1   
     8     3     5 1   
     9     3    25 1   
    10     3    29 1   
    11     4    26 1   
    12     4    30 1   
    13     4    31 1   
    14     5    12 1   
    15     5    32 1   
    16     5    33 1   
    17     6     7 ar  
    18     6    24 ar  
    19     6    34 1   
    20     7     8 ar  
    21     7    35 1   
    22     8     9 ar  
    23     8    11 1   
    24     9    10 ar  
    25     9    36 1   
    26    10    24 ar  
    27    10    37 1   
    28    11    38 1   
    29    11    39 1   
    30    11    40 1   
    31    12    13 ar  
    32    12    16 ar  
    33    13    27 ar  
    34    13    41 1   
    35    14    15 ar  
    36    14    27 ar  
    37    14    42 1   
    38    15    16 ar  
    39    15    43 1   
    40    16    44 1   
    41    17    23 1   
    42    18    19 1   
    43    18    45 1   
    44    19    20 2   
    45    20    25 1   
    46    21    22 1   
    47    22    23 2   
    48    22    46 1   
    49    23    24 1   
    50    25    47 1   
    51    26    48 1   
@<TRIPOS>SUBSTRUCTURE
     1 9K1         1 TEMP              0 ****  ****    0 ROOT
