@<TRIPOS>MOLECULE
9K2
   39    41     1     0     0
SMALL
No Charge or Current Charge


@<TRIPOS>ATOM
      1 N1          -3.9810     1.2490     0.1180 nc         1 9K2      -0.490100
      2 C2          -3.4910    -1.0670     0.9550 c3         1 9K2       0.158500
      3 C3          -3.0790     0.2850     0.3840 cd         1 9K2       0.351900
      4 C6           0.4990     2.1670    -0.7110 ca         1 9K2      -0.062000
      5 C8          -0.4920     0.1120     0.1810 ca         1 9K2      -0.026000
      6 C9          -1.7410     0.7380     0.0760 ca         1 9K2      -0.228900
      7 C10          2.0140     0.2050    -0.1310 cp         1 9K2      -0.049000
      8 C11          2.2260    -1.0410    -0.7720 ca         1 9K2      -0.075000
      9 C12          3.4780    -1.6750    -0.7330 ca         1 9K2      -0.156000
     10 C13          4.5380    -1.0720    -0.0460 ca         1 9K2       0.175000
     11 F            5.7440    -1.6780    -0.0070 f          1 9K2      -0.180000
     12 C14          4.3520     0.1550     0.6070 ca         1 9K2      -0.157000
     13 C15          3.0990     0.8000     0.5780 ca         1 9K2      -0.033300
     14 C7           0.6640     0.8390    -0.2120 cp         1 9K2      -0.077000
     15 C5          -0.7790     2.7630    -0.8000 ca         1 9K2      -0.132000
     16 C4          -1.8800     2.0040    -0.3900 ca         1 9K2      -0.037200
     17 N2          -3.2230     2.3290    -0.3730 na         1 9K2      -0.060400
     18 N           -3.8590    -2.1210    -0.0410 n3         1 9K2      -0.703600
     19 C1          -2.7720    -2.4290    -0.9990 c3         1 9K2       0.148600
     20 C           -4.4040    -3.3370     0.6010 c3         1 9K2       0.148600
     21 H2          -2.6680    -1.4280     1.5860 h1         1 9K2       0.044200
     22 H3          -4.3410    -0.8910     1.6290 h1         1 9K2       0.044200
     23 H4           1.3690     2.7300    -1.0400 ha         1 9K2       0.117000
     24 H5          -0.4060    -0.9040     0.5600 ha         1 9K2       0.121000
     25 H6           1.4080    -1.5120    -1.3150 ha         1 9K2       0.119000
     26 H7           3.6270    -2.6280    -1.2350 ha         1 9K2       0.133000
     27 H8           3.0890     2.9730     0.6790 hc         1 9K2       0.047033
     28 H9           1.9600     2.1980     1.8070 hc         1 9K2       0.047033
     29 H10          3.6880     2.1940     2.1480 hc         1 9K2       0.047033
     30 H11          5.1870     0.6000     1.1420 ha         1 9K2       0.130000
     31 H12         -0.9000     3.7750    -1.1810 ha         1 9K2       0.122000
     32 H14         -1.8910    -2.8270    -0.4770 h1         1 9K2       0.031367
     33 H15         -3.1020    -3.1770    -1.7320 h1         1 9K2       0.031367
     34 H16         -2.4690    -1.5320    -1.5540 h1         1 9K2       0.031367
     35 H17         -5.2630    -3.0890     1.2380 h1         1 9K2       0.031367
     36 H18         -4.7430    -4.0580    -0.1560 h1         1 9K2       0.031367
     37 H19         -3.6430    -3.8260     1.2240 h1         1 9K2       0.031367
     38 H1          -3.6450     3.2110    -0.6610 hn         1 9K2       0.378000
     39 C16          2.9490     2.1120     1.3430 c3         1 9K2      -0.050800
@<TRIPOS>BOND
     1     1     3 2   
     2     1    17 1   
     3     2     3 1   
     4     2    18 1   
     5     2    21 1   
     6     2    22 1   
     7     3     6 1   
     8     4    14 ar  
     9     4    15 ar  
    10     4    23 1   
    11     5     6 ar  
    12     5    14 ar  
    13     5    24 1   
    14     6    16 ar  
    15     7     8 ar  
    16     7    13 ar  
    17     7    14 1   
    18     8     9 ar  
    19     8    25 1   
    20     9    10 ar  
    21     9    26 1   
    22    10    11 1   
    23    10    12 ar  
    24    12    13 ar  
    25    12    30 1   
    26    13    39 1   
    27    15    16 ar  
    28    15    31 1   
    29    16    17 1   
    30    17    38 1   
    31    18    19 1   
    32    18    20 1   
    33    19    32 1   
    34    19    33 1   
    35    19    34 1   
    36    20    35 1   
    37    20    36 1   
    38    20    37 1   
    39    27    39 1   
    40    28    39 1   
    41    29    39 1   
@<TRIPOS>SUBSTRUCTURE
     1 9K2         1 TEMP              0 ****  ****    0 ROOT
