@<TRIPOS>MOLECULE
9K2
   39    41     1     0     0
SMALL
abcg2


@<TRIPOS>ATOM
      1 N1          -3.8300     1.1000     0.0990 nc         1 9K2      -0.490100
      2 C2          -3.3940    -1.1460     0.9830 c3         1 9K2       0.158500
      3 C3          -2.9640     0.1660     0.4130 cd         1 9K2       0.351900
      4 C6           0.5240     2.0980    -0.7300 ca         1 9K2      -0.062000
      5 C8          -0.3590     0.0550     0.2210 ca         1 9K2      -0.026000
      6 C9          -1.6420     0.6040     0.1110 ca         1 9K2      -0.228900
      7 C10          2.0920     0.2300    -0.1210 cp         1 9K2      -0.049000
      8 C11          2.3580    -0.9680    -0.7820 ca         1 9K2      -0.075000
      9 C12          3.6120    -1.5610    -0.7490 ca         1 9K2      -0.156000
     10 C13          4.6040    -0.9230    -0.0340 ca         1 9K2       0.175000
     11 F            5.8310    -1.4690     0.0120 f          1 9K2      -0.180000
     12 C14          4.3770     0.2580     0.6430 ca         1 9K2      -0.157000
     13 C15          3.1170     0.8510     0.6100 ca         1 9K2      -0.033300
     14 C7           0.7260     0.8010    -0.1950 cp         1 9K2      -0.077000
     15 C5          -0.7230     2.6620    -0.8520 ca         1 9K2      -0.132000
     16 C4          -1.8090     1.8930    -0.4200 ca         1 9K2      -0.037200
     17 N2          -3.1410     2.1280    -0.4000 na         1 9K2      -0.060400
     18 N           -3.9890    -2.0210    -0.0140 n3         1 9K2      -0.703600
     19 C1          -3.0430    -2.4090    -1.0370 c3         1 9K2       0.148600
     20 C           -4.5790    -3.1830     0.6140 c3         1 9K2       0.148600
     21 H2          -2.5300    -1.6180     1.4810 h1         1 9K2       0.044200
     22 H3          -4.1390    -0.9720     1.7640 h1         1 9K2       0.044200
     23 H4           1.3850     2.6590    -1.0720 ha         1 9K2       0.117000
     24 H5          -0.2140    -0.9360     0.6360 ha         1 9K2       0.121000
     25 H6           1.5690    -1.4450    -1.3490 ha         1 9K2       0.119000
     26 H7           3.8070    -2.4890    -1.2700 ha         1 9K2       0.133000
     27 H8           2.9210     2.9970     0.7290 hc         1 9K2       0.047033
     28 H9           1.9260     2.1250     1.8810 hc         1 9K2       0.047033
     29 H10          3.6660     2.2560     2.1350 hc         1 9K2       0.047033
     30 H11          5.1780     0.7150     1.2110 ha         1 9K2       0.130000
     31 H12         -0.8540     3.6490    -1.2730 ha         1 9K2       0.122000
     32 H14         -2.1850    -2.9760    -0.6420 h1         1 9K2       0.031367
     33 H15         -3.5400    -3.0350    -1.7790 h1         1 9K2       0.031367
     34 H16         -2.6510    -1.5320    -1.5540 h1         1 9K2       0.031367
     35 H17         -5.3370    -2.8770     1.3370 h1         1 9K2       0.031367
     36 H18         -5.0670    -3.8030    -0.1390 h1         1 9K2       0.031367
     37 H19         -3.8470    -3.8140     1.1420 h1         1 9K2       0.031367
     38 H1          -3.6280     2.9560    -0.7010 hn         1 9K2       0.378000
     39 C16          2.8930     2.1210     1.3790 c3         1 9K2      -0.050800
@<TRIPOS>BOND
     1     1     3 2   
     2     1    17 1   
     3     2     3 1   
     4     2    18 1   
     5     2    21 1   
     6     2    22 1   
     7     3     6 1   
     8     4    14 ar  
     9     4    15 ar  
    10     4    23 1   
    11     5     6 ar  
    12     5    14 ar  
    13     5    24 1   
    14     6    16 ar  
    15     7     8 ar  
    16     7    13 ar  
    17     7    14 1   
    18     8     9 ar  
    19     8    25 1   
    20     9    10 ar  
    21     9    26 1   
    22    10    11 1   
    23    10    12 ar  
    24    12    13 ar  
    25    12    30 1   
    26    13    39 1   
    27    15    16 ar  
    28    15    31 1   
    29    16    17 1   
    30    17    38 1   
    31    18    19 1   
    32    18    20 1   
    33    19    32 1   
    34    19    33 1   
    35    19    34 1   
    36    20    35 1   
    37    20    36 1   
    38    20    37 1   
    39    27    39 1   
    40    28    39 1   
    41    29    39 1   
@<TRIPOS>SUBSTRUCTURE
     1 9K2         1 TEMP              0 ****  ****    0 ROOT
