@<TRIPOS>MOLECULE
9K3
   46    48     1     0     0
SMALL
No Charge or Current Charge


@<TRIPOS>ATOM
      1 N            2.9160    -2.0740    -0.4110 nb         1 9K3      -0.793000
      2 C            4.6560     0.7080     1.2130 ca         1 9K3      -0.094000
      3 O           -1.6850     2.1600    -1.8800 oh         1 9K3      -0.660000
      4 C1           4.3920    -0.5100     0.5730 ca         1 9K3      -0.103000
      5 C11         -5.1550    -0.8490     0.6890 c3         1 9K3       0.156800
      6 C12         -5.7660    -1.2270     2.0480 c3         1 9K3      -0.092100
      7 C14         -0.8440     2.6010    -0.8120 c3         1 9K3       0.166000
      8 C15          0.5830     2.7460    -1.3890 c3         1 9K3      -0.126100
      9 C16         -1.3710     3.9790    -0.3580 c3         1 9K3      -0.126100
     10 C2           3.0870    -0.8660     0.1860 ca         1 9K3       0.334000
     11 C3           2.0050     0.0420     0.4430 ca         1 9K3      -0.093000
     12 C4           2.2920     1.2610     1.1060 ca         1 9K3      -0.085000
     13 C5           3.6030     1.5890     1.4810 ca         1 9K3      -0.136000
     14 C6           0.7030    -0.3680     0.0180 ca         1 9K3      -0.032200
     15 C7           1.6850    -2.4140    -0.7630 ca         1 9K3       0.685900
     16 C8           0.5470    -1.6040    -0.5570 ca         1 9K3      -0.032600
     17 C9          -1.4580    -0.8000    -0.4480 cc         1 9K3       0.407800
     18 N1           1.6650    -3.6370    -1.3030 nv         1 9K3      -1.056900
     19 N2          -0.7910    -1.8980    -0.8480 nd         1 9K3      -0.548100
     20 N3          -0.5780     0.1740     0.0540 na         1 9K3      -0.144600
     21 N4          -3.6890    -0.9760     0.7430 n7         1 9K3      -0.853400
     22 H1           5.6720     0.9640     1.5050 ha         1 9K3       0.113000
     23 H2          -1.6020     2.8190    -2.6030 ho         1 9K3       0.451000
     24 H3           5.2120    -1.1950     0.3750 ha         1 9K3       0.128000
     25 H4          -3.2150     0.3680    -0.8520 h1         1 9K3       0.062200
     26 H5          -3.3290    -1.3170    -1.3340 h1         1 9K3       0.062200
     27 H6          -5.5690    -1.5100    -0.0850 h1         1 9K3       0.029200
     28 H7          -5.4440     0.1820     0.4410 h1         1 9K3       0.029200
     29 H8          -6.8590    -1.1390     2.0080 hc         1 9K3       0.038700
     30 H9          -5.5160    -2.2610     2.3130 hc         1 9K3       0.038700
     31 H10         -5.3990    -0.5640     2.8390 hc         1 9K3       0.038700
     32 H11         -0.4150     1.9330     1.2530 h1         1 9K3       0.065200
     33 H12         -1.9950     1.5690     0.6910 h1         1 9K3       0.065200
     34 H13          0.5900     3.4310    -2.2460 hc         1 9K3       0.048033
     35 H14          1.2700     3.1560    -0.6410 hc         1 9K3       0.048033
     36 H15          0.9770     1.7830    -1.7340 hc         1 9K3       0.048033
     37 H16         -2.4090     3.9070    -0.0090 hc         1 9K3       0.048033
     38 H17         -0.7640     4.3740     0.4660 hc         1 9K3       0.048033
     39 H18         -1.3390     4.7070    -1.1780 hc         1 9K3       0.048033
     40 H19          1.5300     1.9810     1.3520 ha         1 9K3       0.098000
     41 H20          3.8020     2.5320     1.9850 ha         1 9K3       0.110000
     42 H21          2.4770    -4.1970    -1.0810 hn         1 9K3       0.490000
     43 H22          0.7680    -4.1090    -1.2870 hn         1 9K3       0.490000
     44 H23         -3.3420    -0.3530     1.4830 hn         1 9K3       0.401000
     45 C10         -2.9760    -0.6540    -0.5320 c3         1 9K3       0.141500
     46 C13         -0.9460     1.5780     0.3710 c3         1 9K3       0.085600
@<TRIPOS>BOND
     1     1    10 ar  
     2     1    15 ar  
     3     2     4 ar  
     4     2    13 ar  
     5     2    22 1   
     6     3     7 1   
     7     3    23 1   
     8     4    10 ar  
     9     4    24 1   
    10     5     6 1   
    11     5    21 1   
    12     5    27 1   
    13     5    28 1   
    14     6    29 1   
    15     6    30 1   
    16     6    31 1   
    17     7     8 1   
    18     7     9 1   
    19     7    46 1   
    20     8    34 1   
    21     8    35 1   
    22     8    36 1   
    23     9    37 1   
    24     9    38 1   
    25     9    39 1   
    26    10    11 ar  
    27    11    12 ar  
    28    11    14 ar  
    29    12    13 ar  
    30    12    40 1   
    31    13    41 1   
    32    14    16 ar  
    33    14    20 1   
    34    15    16 ar  
    35    15    18 1   
    36    16    19 1   
    37    17    19 2   
    38    17    20 1   
    39    17    45 1   
    40    18    42 1   
    41    18    43 1   
    42    20    46 1   
    43    21    44 1   
    44    21    45 1   
    45    25    45 1   
    46    26    45 1   
    47    32    46 1   
    48    33    46 1   
@<TRIPOS>SUBSTRUCTURE
     1 9K3         1 TEMP              0 ****  ****    0 ROOT
