@<TRIPOS>MOLECULE
9K3
   46    48     1     0     0
SMALL
abcg2


@<TRIPOS>ATOM
      1 N            2.7910    -2.0910    -0.3000 nb         1 9K3      -0.793000
      2 C            4.5810     0.6250     1.3260 ca         1 9K3      -0.094000
      3 O           -1.6770     2.0500    -1.9090 oh         1 9K3      -0.660000
      4 C1           4.2880    -0.5660     0.7080 ca         1 9K3      -0.103000
      5 C11         -4.9350    -0.8720     0.7130 c3         1 9K3       0.156800
      6 C12         -5.4920    -1.3030     2.0580 c3         1 9K3      -0.092100
      7 C14         -0.8780     2.6070    -0.8830 c3         1 9K3       0.166000
      8 C15          0.5490     2.8050    -1.3830 c3         1 9K3      -0.126100
      9 C16         -1.4500     3.9410    -0.4050 c3         1 9K3      -0.126100
     10 C2           2.9820    -0.8690     0.2730 ca         1 9K3       0.334000
     11 C3           1.9610     0.1060     0.4720 ca         1 9K3      -0.093000
     12 C4           2.2880     1.3110     1.1200 ca         1 9K3      -0.085000
     13 C5           3.5700     1.5700     1.5400 ca         1 9K3      -0.136000
     14 C6           0.6750    -0.3000    -0.0030 ca         1 9K3      -0.032200
     15 C7           1.5970    -2.4440    -0.6980 ca         1 9K3       0.685900
     16 C8           0.4940    -1.5560    -0.5480 ca         1 9K3      -0.032600
     17 C9          -1.4310    -0.6780    -0.5370 cc         1 9K3       0.407800
     18 N1           1.4060    -3.6450    -1.2860 nv         1 9K3      -1.056900
     19 N2          -0.8110    -1.7770    -0.8670 nd         1 9K3      -0.548100
     20 N3          -0.5770     0.2640    -0.0190 na         1 9K3      -0.144600
     21 N4          -3.4830    -0.9540     0.7050 n7         1 9K3      -0.853400
     22 H1           5.5920     0.8310     1.6520 ha         1 9K3       0.113000
     23 H2          -1.6000     2.6070    -2.6920 ho         1 9K3       0.451000
     24 H3           5.0600    -1.3080     0.5450 ha         1 9K3       0.128000
     25 H4          -3.2100     0.4820    -0.8620 h1         1 9K3       0.062200
     26 H5          -3.2890    -1.1980    -1.3490 h1         1 9K3       0.062200
     27 H6          -5.3150    -1.5330    -0.0710 h1         1 9K3       0.029200
     28 H7          -5.3000     0.1370     0.4680 h1         1 9K3       0.029200
     29 H8          -6.5800    -1.2470     2.0590 hc         1 9K3       0.038700
     30 H9          -5.2050    -2.3290     2.2910 hc         1 9K3       0.038700
     31 H10         -5.1270    -0.6580     2.8600 hc         1 9K3       0.038700
     32 H11         -0.3780     1.9870     1.1340 h1         1 9K3       0.065200
     33 H12         -1.9980     1.6020     0.6580 h1         1 9K3       0.065200
     34 H13          0.5480     3.4800    -2.2420 hc         1 9K3       0.048033
     35 H14          1.1840     3.2580    -0.6230 hc         1 9K3       0.048033
     36 H15          1.0090     1.8690    -1.7020 hc         1 9K3       0.048033
     37 H16         -2.4880     3.8360    -0.0850 hc         1 9K3       0.048033
     38 H17         -0.8740     4.3360     0.4330 hc         1 9K3       0.048033
     39 H18         -1.4140     4.6820    -1.2050 hc         1 9K3       0.048033
     40 H19          1.5300     2.0570     1.3010 ha         1 9K3       0.098000
     41 H20          3.7950     2.5050     2.0370 ha         1 9K3       0.110000
     42 H21          2.1310    -4.3370    -1.1960 hn         1 9K3       0.490000
     43 H22          0.4670    -3.9950    -1.3740 hn         1 9K3       0.490000
     44 H23         -3.1240    -0.3620     1.4460 hn         1 9K3       0.401000
     45 C10         -2.9170    -0.5310    -0.5690 c3         1 9K3       0.141500
     46 C13         -0.9690     1.6250     0.2970 c3         1 9K3       0.085600
@<TRIPOS>BOND
     1     1    10 ar  
     2     1    15 ar  
     3     2     4 ar  
     4     2    13 ar  
     5     2    22 1   
     6     3     7 1   
     7     3    23 1   
     8     4    10 ar  
     9     4    24 1   
    10     5     6 1   
    11     5    21 1   
    12     5    27 1   
    13     5    28 1   
    14     6    29 1   
    15     6    30 1   
    16     6    31 1   
    17     7     8 1   
    18     7     9 1   
    19     7    46 1   
    20     8    34 1   
    21     8    35 1   
    22     8    36 1   
    23     9    37 1   
    24     9    38 1   
    25     9    39 1   
    26    10    11 ar  
    27    11    12 ar  
    28    11    14 ar  
    29    12    13 ar  
    30    12    40 1   
    31    13    41 1   
    32    14    16 ar  
    33    14    20 1   
    34    15    16 ar  
    35    15    18 1   
    36    16    19 1   
    37    17    19 2   
    38    17    20 1   
    39    17    45 1   
    40    18    42 1   
    41    18    43 1   
    42    20    46 1   
    43    21    44 1   
    44    21    45 1   
    45    25    45 1   
    46    26    45 1   
    47    32    46 1   
    48    33    46 1   
@<TRIPOS>SUBSTRUCTURE
     1 9K3         1 TEMP              0 ****  ****    0 ROOT
