@<TRIPOS>MOLECULE
9K4
  101   102     1     0     0
SMALL
abcg2


@<TRIPOS>ATOM
      1 C10          9.6620    -0.7820    -0.5290 c3         1 9K4       0.177500
      2 C13          7.2230    -0.7940    -1.2670 c          1 9K4       0.602100
      3 C15          4.9020    -0.8000    -2.0230 c6         1 9K4       0.093500
      4 C21          0.5150     2.5330     2.7910 c3         1 9K4       0.101000
      5 C22         -0.7110     3.2730     2.2910 c3         1 9K4       0.134600
      6 C24         -2.3210     3.2760     0.5960 c3         1 9K4       0.160600
      7 C28         -4.6000    -0.6770    -0.7570 c3         1 9K4       0.161600
      8 C02         14.2220    -1.1880     0.0680 ca         1 9K4       0.117000
      9 C03         14.6590     0.0890    -0.2330 ca         1 9K4       0.159000
     10 F04         15.9450     0.2930    -0.5270 f          1 9K4      -0.157000
     11 C05         13.7750     1.1470    -0.2270 ca         1 9K4      -0.174000
     12 C06         12.4540     0.8880     0.0880 ca         1 9K4       0.181000
     13 F07         11.5980     1.9230     0.0890 f          1 9K4      -0.175000
     14 C08         11.9760    -0.3740     0.4000 ca         1 9K4      -0.085300
     15 C09         10.5330    -0.6140     0.7230 c3         1 9K4      -0.023100
     16 N11         10.1290    -1.9240    -1.2930 n8         1 9K4      -0.993200
     17 C12          8.1930    -0.8500    -0.1010 c3         1 9K4      -0.200400
     18 N14          5.9130    -0.9870    -0.9970 n          1 9K4      -0.407800
     19 C16          4.0980     0.4580    -1.7370 c6         1 9K4       0.140300
     20 N17          3.5000     0.3920    -0.4150 n3         1 9K4      -0.692600
     21 C18          2.6900     1.5500    -0.1430 c3         1 9K4       0.083800
     22 C19          1.7500     1.3300     1.0340 c          1 9K4       0.602100
     23 N20          1.5400     2.4270     1.7810 ns         1 9K4      -0.508900
     24 O23         -1.2630     2.5810     1.2040 os         1 9K4      -0.434000
     25 C25         -2.8150     2.5150    -0.6060 c3         1 9K4       0.164600
     26 O26         -3.4110     1.3100    -0.1980 os         1 9K4      -0.431000
     27 C27         -3.9420     0.5770    -1.2720 c3         1 9K4       0.162600
     28 O29         -5.6990    -0.3360     0.0480 os         1 9K4      -0.438000
     29 C30         -6.4040    -1.4570     0.5150 c3         1 9K4       0.162600
     30 C31         -7.5080    -1.0120     1.4380 c3         1 9K4       0.161600
     31 O32         -8.4420    -0.2430     0.7240 os         1 9K4      -0.437000
     32 C33         -9.4620     0.2730     1.5410 c3         1 9K4       0.162600
     33 C34        -10.3840     1.1360     0.7200 c3         1 9K4       0.160600
     34 O35        -11.0890     0.3440    -0.2020 os         1 9K4      -0.434000
     35 C36        -11.9690     1.0960    -0.9970 c3         1 9K4       0.161600
     36 C37        -12.7480     0.1790    -1.9060 c3         1 9K4       0.162600
     37 O38        -13.5710    -0.6600    -1.1350 os         1 9K4      -0.458000
     38 C39        -14.4160    -1.4750    -1.9090 c3         1 9K4       0.140600
     39 C40        -15.3230    -2.2500    -0.9780 c3         1 9K4       0.103000
     40 N41        -16.1170    -1.3510    -0.1720 ns         1 9K4      -0.505900
     41 C42        -17.3520    -1.6310     0.2730 c          1 9K4       0.599100
     42 C43        -17.9880    -0.5600     1.1250 c3         1 9K4      -0.179100
     43 O45        -17.9370    -2.6750     0.0110 o          1 9K4      -0.615100
     44 O46          1.2270     0.2480     1.2480 o          1 9K4      -0.564100
     45 C47          4.5110     0.1930     0.6070 c6         1 9K4       0.140300
     46 C48          5.3250    -1.0600     0.3270 c6         1 9K4       0.093500
     47 O49          7.6200    -0.5800    -2.4070 o          1 9K4      -0.610100
     48 C50         12.8980    -1.4170     0.3770 ca         1 9K4      -0.084000
     49 H1           9.7940     0.1030    -1.1560 h1         1 9K4       0.086700
     50 H2           5.3710    -0.7340    -3.0000 h1         1 9K4       0.067200
     51 H3           4.2410    -1.6710    -2.0230 h1         1 9K4       0.067200
     52 H4           0.9120     3.0690     3.6540 h1         1 9K4       0.067200
     53 H5           0.2480     1.5320     3.1260 h1         1 9K4       0.067200
     54 H6          -1.4310     3.3660     3.1170 h1         1 9K4       0.021700
     55 H7          -0.4290     4.2960     2.0000 h1         1 9K4       0.021700
     56 H8          -3.1480     3.4370     1.3020 h1         1 9K4       0.027700
     57 H9          -1.9950     4.2700     0.2570 h1         1 9K4       0.027700
     58 H10         -4.9130    -1.2780    -1.6230 h1         1 9K4       0.030700
     59 H11         -3.8730    -1.2830    -0.1960 h1         1 9K4       0.030700
     60 H12         14.1100     2.1500    -0.4600 ha         1 9K4       0.152000
     61 H13         10.1370     0.2050     1.3270 hc         1 9K4       0.050700
     62 H14         10.4490    -1.5130     1.3400 hc         1 9K4       0.050700
     63 H15          9.9520    -2.7790    -0.7760 hn         1 9K4       0.403500
     64 H16          9.5930    -1.9920    -2.1480 hn         1 9K4       0.403500
     65 H18          8.0350    -1.7580     0.4900 hc         1 9K4       0.062200
     66 H19          7.9670    -0.0180     0.5750 hc         1 9K4       0.062200
     67 H20          4.7570     1.3350    -1.8500 h1         1 9K4       0.042200
     68 H21          3.3040     0.5490    -2.4810 h1         1 9K4       0.042200
     69 H23          3.2940     2.4610     0.0030 h1         1 9K4       0.046200
     70 H24          2.0520     1.7460    -1.0120 h1         1 9K4       0.046200
     71 H25          2.0180     3.2750     1.5220 hn         1 9K4       0.303500
     72 H26         -3.5380     3.1510    -1.1360 h1         1 9K4       0.026200
     73 H27         -1.9840     2.3290    -1.3020 h1         1 9K4       0.026200
     74 H28         -3.1560     0.2870    -1.9830 h1         1 9K4       0.027700
     75 H29         -4.6730     1.1770    -1.8340 h1         1 9K4       0.027700
     76 H30         -6.8220    -2.0360    -0.3220 h1         1 9K4       0.028700
     77 H31         -5.7450    -2.1370     1.0730 h1         1 9K4       0.028700
     78 H32         -7.9760    -1.9060     1.8720 h1         1 9K4       0.028700
     79 H33         -7.0850    -0.4360     2.2750 h1         1 9K4       0.028700
     80 H34        -10.0320    -0.5350     2.0230 h1         1 9K4       0.029200
     81 H35         -9.0450     0.8920     2.3470 h1         1 9K4       0.029200
     82 H36        -11.0730     1.6500     1.4050 h1         1 9K4       0.028200
     83 H37         -9.8030     1.9180     0.2090 h1         1 9K4       0.028200
     84 H38        -12.6640     1.6770    -0.3750 h1         1 9K4       0.027200
     85 H39        -11.4240     1.8160    -1.6230 h1         1 9K4       0.027200
     86 H40        -13.3450     0.8010    -2.5860 h1         1 9K4       0.032200
     87 H41        -12.0620    -0.4100    -2.5300 h1         1 9K4       0.032200
     88 H42        -15.0210    -0.8680    -2.5960 h1         1 9K4       0.031200
     89 H43        -13.8390    -2.1830    -2.5180 h1         1 9K4       0.031200
     90 H44        -15.9860    -2.8740    -1.5760 h1         1 9K4       0.062200
     91 H45        -14.7290    -2.9190    -0.3470 h1         1 9K4       0.062200
     92 H46        -15.6740    -0.5020     0.1390 hn         1 9K4       0.322500
     93 H47        -17.3670     0.3260     1.2500 hc         1 9K4       0.058367
     94 H48        -18.9350    -0.2580     0.6780 hc         1 9K4       0.058367
     95 H49        -18.2100    -0.9680     2.1110 hc         1 9K4       0.058367
     96 H50          5.1950     1.0570     0.6760 h1         1 9K4       0.042200
     97 H51          4.0310     0.0830     1.5820 h1         1 9K4       0.042200
     98 H52          4.6760    -1.9390     0.3730 h1         1 9K4       0.067200
     99 H53          6.0850    -1.1800     1.0930 h1         1 9K4       0.067200
    100 H54         12.5790    -2.4250     0.6130 ha         1 9K4       0.138000
    101 F01         15.1000    -2.1980     0.0560 f          1 9K4      -0.160000
@<TRIPOS>BOND
     1     1    15 1   
     2     1    16 1   
     3     1    17 1   
     4     1    49 1   
     5     2    17 1   
     6     2    18 1   
     7     2    47 2   
     8     3    18 1   
     9     3    19 1   
    10     3    50 1   
    11     3    51 1   
    12     4     5 1   
    13     4    23 1   
    14     4    52 1   
    15     4    53 1   
    16     5    24 1   
    17     5    54 1   
    18     5    55 1   
    19     6    24 1   
    20     6    25 1   
    21     6    56 1   
    22     6    57 1   
    23     7    27 1   
    24     7    28 1   
    25     7    58 1   
    26     7    59 1   
    27     8     9 ar  
    28     8    48 ar  
    29     8   101 1   
    30     9    10 1   
    31     9    11 ar  
    32    11    12 ar  
    33    11    60 1   
    34    12    13 1   
    35    12    14 ar  
    36    14    15 1   
    37    14    48 ar  
    38    15    61 1   
    39    15    62 1   
    40    16    63 1   
    41    16    64 1   
    42    17    65 1   
    43    17    66 1   
    44    18    46 1   
    45    19    20 1   
    46    19    67 1   
    47    19    68 1   
    48    20    21 1   
    49    20    45 1   
    50    21    22 1   
    51    21    69 1   
    52    21    70 1   
    53    22    23 1   
    54    22    44 2   
    55    23    71 1   
    56    25    26 1   
    57    25    72 1   
    58    25    73 1   
    59    26    27 1   
    60    27    74 1   
    61    27    75 1   
    62    28    29 1   
    63    29    30 1   
    64    29    76 1   
    65    29    77 1   
    66    30    31 1   
    67    30    78 1   
    68    30    79 1   
    69    31    32 1   
    70    32    33 1   
    71    32    80 1   
    72    32    81 1   
    73    33    34 1   
    74    33    82 1   
    75    33    83 1   
    76    34    35 1   
    77    35    36 1   
    78    35    84 1   
    79    35    85 1   
    80    36    37 1   
    81    36    86 1   
    82    36    87 1   
    83    37    38 1   
    84    38    39 1   
    85    38    88 1   
    86    38    89 1   
    87    39    40 1   
    88    39    90 1   
    89    39    91 1   
    90    40    41 1   
    91    40    92 1   
    92    41    42 1   
    93    41    43 2   
    94    42    93 1   
    95    42    94 1   
    96    42    95 1   
    97    45    46 1   
    98    45    96 1   
    99    45    97 1   
   100    46    98 1   
   101    46    99 1   
   102    48   100 1   
@<TRIPOS>SUBSTRUCTURE
     1 9K4         1 TEMP              0 ****  ****    0 ROOT
