@<TRIPOS>MOLECULE
9K4
  101   102     1     0     0
SMALL
No Charge or Current Charge


@<TRIPOS>ATOM
      1 C10         10.5800    -0.7220    -0.4200 c3         1 9K4       0.177500
      2 C13          8.2330    -0.2310    -1.4760 c          1 9K4       0.602100
      3 C15          6.0440     0.3350    -2.5670 c6         1 9K4       0.093500
      4 C21          0.8780     1.6470     2.3820 c3         1 9K4       0.101000
      5 C22         -0.3020     2.6460     2.4040 c3         1 9K4       0.134600
      6 C24         -2.2570     3.3100     1.1370 c3         1 9K4       0.160600
      7 C28         -5.2150    -0.0740    -0.7050 c3         1 9K4       0.161600
      8 C02         14.8840    -2.1380     1.0260 ca         1 9K4       0.117000
      9 C03         15.6790    -1.2470     0.2800 ca         1 9K4       0.159000
     10 F04         16.9980    -1.4910     0.1030 f          1 9K4      -0.157000
     11 C05         15.1060    -0.0970    -0.2830 ca         1 9K4      -0.174000
     12 C06         13.7380     0.1610    -0.1020 ca         1 9K4       0.181000
     13 F07         13.2050     1.2770    -0.6480 f          1 9K4      -0.175000
     14 C08         12.9290    -0.7260     0.6430 ca         1 9K4      -0.085300
     15 C09         11.4380    -0.4490     0.8440 c3         1 9K4      -0.023100
     16 N11         10.6780    -2.1370    -0.8240 n8         1 9K4      -0.993200
     17 C12          9.1000    -0.3430    -0.2070 c3         1 9K4      -0.200400
     18 N14          6.9080     0.2490    -1.3480 n          1 9K4      -0.407800
     19 C16          4.7320     1.1440    -2.3900 c6         1 9K4       0.140300
     20 N17          3.9760     0.7350    -1.1800 n3         1 9K4      -0.692600
     21 C18          2.6480     1.4250    -1.0800 c3         1 9K4       0.083800
     22 C19          1.6940     0.9970     0.0750 c          1 9K4       0.602100
     23 N20          1.7420     1.8000     1.1990 ns         1 9K4      -0.508900
     24 O23         -1.1260     2.4240     1.2450 os         1 9K4      -0.434000
     25 C25         -3.0550     2.9560    -0.1410 c3         1 9K4       0.164600
     26 O26         -3.7470     1.7090     0.0660 os         1 9K4      -0.431000
     27 C27         -4.5180     1.2600    -1.0660 c3         1 9K4       0.162600
     28 O29         -6.2810     0.1890     0.2290 os         1 9K4      -0.438000
     29 C30         -7.0050    -0.9830     0.6540 c3         1 9K4       0.162600
     30 C31         -8.1190    -0.5580     1.6400 c3         1 9K4       0.161600
     31 O32         -9.1600     0.1230     0.9110 os         1 9K4      -0.437000
     32 C33        -10.2580     0.5810     1.7250 c3         1 9K4       0.162600
     33 C34        -11.3010     1.2790     0.8210 c3         1 9K4       0.160600
     34 O35        -11.9810     0.2840     0.0300 os         1 9K4      -0.434000
     35 C36        -12.9770     0.8120    -0.8670 c3         1 9K4       0.161600
     36 C37        -13.6330    -0.3570    -1.6400 c3         1 9K4       0.162600
     37 O38        -14.4840    -1.0980    -0.7420 os         1 9K4      -0.458000
     38 C39        -15.1510    -2.2230    -1.3450 c3         1 9K4       0.140600
     39 C40        -16.0290    -2.9060    -0.2710 c3         1 9K4       0.103000
     40 N41        -17.0740    -2.0250     0.2740 ns         1 9K4      -0.505900
     41 C42        -18.2170    -1.6610    -0.3950 c          1 9K4       0.599100
     42 C43        -19.1110    -0.6810     0.3540 c3         1 9K4      -0.179100
     43 O45        -18.4990    -2.0950    -1.5020 o          1 9K4      -0.615100
     44 O46          0.9610     0.0170     0.0020 o          1 9K4      -0.564100
     45 C47          4.8310     0.9260     0.0190 c6         1 9K4       0.140300
     46 C48          6.1550     0.1180    -0.0580 c6         1 9K4       0.093500
     47 O49          8.6910    -0.4950    -2.5810 o          1 9K4      -0.610100
     48 C50         13.5150    -1.8790     1.2080 ca         1 9K4      -0.084000
     49 H1          10.9840    -0.0980    -1.2330 h1         1 9K4       0.086700
     50 H2           6.6140     0.7830    -3.3930 h1         1 9K4       0.067200
     51 H3           5.7810    -0.6870    -2.8740 h1         1 9K4       0.067200
     52 H4           1.4900     1.8040     3.2790 h1         1 9K4       0.067200
     53 H5           0.4850     0.6230     2.4290 h1         1 9K4       0.067200
     54 H6          -0.8820     2.4980     3.3240 h1         1 9K4       0.021700
     55 H7           0.0920     3.6710     2.4070 h1         1 9K4       0.021700
     56 H8          -2.9120     3.2230     2.0150 h1         1 9K4       0.027700
     57 H9          -1.9180     4.3510     1.0660 h1         1 9K4       0.027700
     58 H10         -5.6170    -0.5220    -1.6230 h1         1 9K4       0.030700
     59 H11         -4.4790    -0.7690    -0.2800 h1         1 9K4       0.030700
     60 H12         15.7190     0.5920    -0.8570 ha         1 9K4       0.152000
     61 H13         11.3040     0.5980     1.1420 hc         1 9K4       0.050700
     62 H14         11.0480    -1.0450     1.6780 hc         1 9K4       0.050700
     63 H15         10.1800    -2.7170    -0.1410 hn         1 9K4       0.403500
     64 H16         10.1350    -2.2590    -1.6870 hn         1 9K4       0.403500
     65 H18          8.6040    -1.0130     0.5040 hc         1 9K4       0.062200
     66 H19          9.0120     0.6170     0.3150 hc         1 9K4       0.062200
     67 H20          4.9840     2.2140    -2.3320 h1         1 9K4       0.042200
     68 H21          4.1160     1.0100    -3.2910 h1         1 9K4       0.042200
     69 H23          2.7990     2.5090    -0.9910 h1         1 9K4       0.046200
     70 H24          2.0840     1.2670    -2.0090 h1         1 9K4       0.046200
     71 H25          2.3820     2.5850     1.1700 hn         1 9K4       0.303500
     72 H26         -3.7750     3.7600    -0.3430 h1         1 9K4       0.026200
     73 H27         -2.3690     2.8900    -0.9950 h1         1 9K4       0.026200
     74 H28         -3.8620     1.0940    -1.9300 h1         1 9K4       0.027700
     75 H29         -5.2740     2.0040    -1.3490 h1         1 9K4       0.027700
     76 H30         -7.4520    -1.5030    -0.2040 h1         1 9K4       0.028700
     77 H31         -6.3300    -1.6820     1.1630 h1         1 9K4       0.028700
     78 H32         -8.5230    -1.4560     2.1260 h1         1 9K4       0.028700
     79 H33         -7.6940     0.0890     2.4180 h1         1 9K4       0.028700
     80 H34        -10.7320    -0.2550     2.2550 h1         1 9K4       0.029200
     81 H35         -9.9000     1.3010     2.4740 h1         1 9K4       0.029200
     82 H36        -12.0190     1.8140     1.4560 h1         1 9K4       0.028200
     83 H37        -10.7980     2.0160     0.1800 h1         1 9K4       0.028200
     84 H38        -13.7480     1.3680    -0.3180 h1         1 9K4       0.027200
     85 H39        -12.5120     1.4970    -1.5890 h1         1 9K4       0.027200
     86 H40        -14.2230     0.0550    -2.4690 h1         1 9K4       0.032200
     87 H41        -12.8510    -1.0000    -2.0650 h1         1 9K4       0.032200
     88 H42        -15.7800    -1.9000    -2.1840 h1         1 9K4       0.031200
     89 H43        -14.4190    -2.9480    -1.7250 h1         1 9K4       0.031200
     90 H44        -16.5060    -3.7930    -0.7090 h1         1 9K4       0.062200
     91 H45        -15.3890    -3.2460     0.5530 h1         1 9K4       0.062200
     92 H46        -16.9190    -1.5980     1.1800 hn         1 9K4       0.322500
     93 H47        -18.5250     0.2080     0.6150 hc         1 9K4       0.058367
     94 H48        -20.0150    -0.4180    -0.2080 hc         1 9K4       0.058367
     95 H49        -19.3540    -1.0980     1.3380 hc         1 9K4       0.058367
     96 H50          5.0790     1.9920     0.1380 h1         1 9K4       0.042200
     97 H51          4.2970     0.6180     0.9300 h1         1 9K4       0.042200
     98 H52          5.9210    -0.9450     0.0950 h1         1 9K4       0.067200
     99 H53          6.7830     0.4350     0.7850 h1         1 9K4       0.067200
    100 H54         12.9120    -2.5770     1.7830 ha         1 9K4       0.138000
    101 F01         15.4320    -3.2490     1.5720 f          1 9K4      -0.160000
@<TRIPOS>BOND
     1     1    15 1   
     2     1    16 1   
     3     1    17 1   
     4     1    49 1   
     5     2    17 1   
     6     2    18 1   
     7     2    47 2   
     8     3    18 1   
     9     3    19 1   
    10     3    50 1   
    11     3    51 1   
    12     4     5 1   
    13     4    23 1   
    14     4    52 1   
    15     4    53 1   
    16     5    24 1   
    17     5    54 1   
    18     5    55 1   
    19     6    24 1   
    20     6    25 1   
    21     6    56 1   
    22     6    57 1   
    23     7    27 1   
    24     7    28 1   
    25     7    58 1   
    26     7    59 1   
    27     8     9 ar  
    28     8    48 ar  
    29     8   101 1   
    30     9    10 1   
    31     9    11 ar  
    32    11    12 ar  
    33    11    60 1   
    34    12    13 1   
    35    12    14 ar  
    36    14    15 1   
    37    14    48 ar  
    38    15    61 1   
    39    15    62 1   
    40    16    63 1   
    41    16    64 1   
    42    17    65 1   
    43    17    66 1   
    44    18    46 1   
    45    19    20 1   
    46    19    67 1   
    47    19    68 1   
    48    20    21 1   
    49    20    45 1   
    50    21    22 1   
    51    21    69 1   
    52    21    70 1   
    53    22    23 1   
    54    22    44 2   
    55    23    71 1   
    56    25    26 1   
    57    25    72 1   
    58    25    73 1   
    59    26    27 1   
    60    27    74 1   
    61    27    75 1   
    62    28    29 1   
    63    29    30 1   
    64    29    76 1   
    65    29    77 1   
    66    30    31 1   
    67    30    78 1   
    68    30    79 1   
    69    31    32 1   
    70    32    33 1   
    71    32    80 1   
    72    32    81 1   
    73    33    34 1   
    74    33    82 1   
    75    33    83 1   
    76    34    35 1   
    77    35    36 1   
    78    35    84 1   
    79    35    85 1   
    80    36    37 1   
    81    36    86 1   
    82    36    87 1   
    83    37    38 1   
    84    38    39 1   
    85    38    88 1   
    86    38    89 1   
    87    39    40 1   
    88    39    90 1   
    89    39    91 1   
    90    40    41 1   
    91    40    92 1   
    92    41    42 1   
    93    41    43 2   
    94    42    93 1   
    95    42    94 1   
    96    42    95 1   
    97    45    46 1   
    98    45    96 1   
    99    45    97 1   
   100    46    98 1   
   101    46    99 1   
   102    48   100 1   
@<TRIPOS>SUBSTRUCTURE
     1 9K4         1 TEMP              0 ****  ****    0 ROOT
