@<TRIPOS>MOLECULE
9K5
   47    50     1     0     0
SMALL
abcg2


@<TRIPOS>ATOM
      1 C1          -2.8610    -0.0950     1.5320 ca         1 9K5       0.009000
      2 C2          -3.0960     0.1440     0.1800 ca         1 9K5      -0.161600
      3 C3          -4.3260    -0.1860    -0.3770 ca         1 9K5       0.047000
      4 O4           1.6800     0.8170     0.8180 os         1 9K5      -0.437000
      5 O5           3.4990     3.0820     1.5950 oh         1 9K5      -0.700000
      6 C7           0.1100     1.6330    -0.8160 c3         1 9K5       0.164600
      7 C8           1.2010     1.9850     0.1600 c5         1 9K5       0.158300
      8 C9           2.4280     2.5890    -0.5160 c5         1 9K5       0.092300
      9 C10          3.5310     2.2300     0.4850 c5         1 9K5       0.104300
     10 C11          3.0700     0.8500     0.9540 c5         1 9K5       0.320300
     11 C12          3.0610    -0.9890    -0.8140 cc         1 9K5       0.411700
     12 C13          5.0430    -1.6980    -0.6520 ca         1 9K5      -0.099600
     13 C14          4.9310    -0.6700     0.2700 ca         1 9K5       0.120500
     14 C15          7.0060    -0.9060     0.9400 ca         1 9K5       0.184900
     15 C16          6.2950    -2.3380    -0.7180 ca         1 9K5       0.453900
     16 O2          -2.2330     0.9010    -1.9010 o          1 9K5      -0.479000
     17 C6          -2.0700     0.7390    -0.7180 c          1 9K5       0.609700
     18 C4          -5.2940    -0.7510     0.4360 ca         1 9K5      -0.351500
     19 S           -6.8510    -1.1610    -0.2600 sy         1 9K5       1.344400
     20 O1          -6.8030    -1.1150    -1.6950 o          1 9K5      -0.534000
     21 O           -7.4570    -2.2590     0.4410 o          1 9K5      -0.534000
     22 C5          -5.0730    -1.0030     1.7850 ca         1 9K5       0.022000
     23 C           -3.8450    -0.6660     2.3260 ca         1 9K5      -0.144000
     24 O3          -0.9670     1.0650    -0.0700 os         1 9K5      -0.432100
     25 O6           2.2520     3.9630    -0.7040 oh         1 9K5      -0.706000
     26 N            3.6490    -0.2190     0.1510 na         1 9K5      -0.312300
     27 N2           5.8810    -0.2300     1.0930 nb         1 9K5      -0.223000
     28 N3           7.2610    -1.9090     0.1020 nb         1 9K5      -0.303000
     29 N4           6.5480    -3.3450    -1.5540 nv         1 9K5      -1.063900
     30 N1           3.8620    -1.8810    -1.3200 nd         1 9K5      -0.552100
     31 H1          -1.9080     0.1550     1.9760 ha         1 9K5       0.143000
     32 H2          -4.5110    -0.0030    -1.4270 ha         1 9K5       0.164000
     33 H4          -0.2160     2.5410    -1.3280 h1         1 9K5       0.063200
     34 H5           0.4600     0.9240    -1.5720 h1         1 9K5       0.063200
     35 H6           0.8060     2.6870     0.9040 h1         1 9K5       0.093700
     36 H7           2.6260     2.0740    -1.4660 h1         1 9K5       0.059700
     37 H8           4.5250     2.1950     0.0220 h1         1 9K5       0.081700
     38 H9           3.3610     0.6680     1.9920 h2         1 9K5       0.126700
     39 H10          2.0280    -0.8630    -1.1010 h5         1 9K5       0.072800
     40 H11          7.8330    -0.6100     1.5760 h5         1 9K5       0.048100
     41 H14         -5.8340    -1.4540     2.4070 ha         1 9K5       0.142000
     42 H15         -3.6520    -0.8530     3.3730 ha         1 9K5       0.131000
     43 H16          2.8580     4.2640    -1.3880 ho         1 9K5       0.522000
     44 H17          5.8450    -3.6830    -2.1880 hn         1 9K5       0.508500
     45 H18          7.4570    -3.7740    -1.5750 hn         1 9K5       0.508500
     46 F1          -7.6760     0.1350     0.1880 f          1 9K5      -0.262900
     47 H3           3.3610     3.9820     1.2750 ho         1 9K5       0.526000
@<TRIPOS>BOND
     1     1     2 ar  
     2     1    23 ar  
     3     1    31 1   
     4     2     3 ar  
     5     2    17 1   
     6     3    18 ar  
     7     3    32 1   
     8     4     7 1   
     9     4    10 1   
    10     5     9 1   
    11     5    47 1   
    12     6     7 1   
    13     6    24 1   
    14     6    33 1   
    15     6    34 1   
    16     7     8 1   
    17     7    35 1   
    18     8     9 1   
    19     8    25 1   
    20     8    36 1   
    21     9    10 1   
    22     9    37 1   
    23    10    26 1   
    24    10    38 1   
    25    11    26 1   
    26    11    30 2   
    27    11    39 1   
    28    12    13 ar  
    29    12    15 ar  
    30    12    30 1   
    31    13    26 1   
    32    13    27 ar  
    33    14    27 ar  
    34    14    28 ar  
    35    14    40 1   
    36    15    28 ar  
    37    15    29 1   
    38    16    17 2   
    39    17    24 1   
    40    18    19 1   
    41    18    22 ar  
    42    19    20 2   
    43    19    21 2   
    44    19    46 1   
    45    22    23 ar  
    46    22    41 1   
    47    23    42 1   
    48    25    43 1   
    49    29    44 1   
    50    29    45 1   
@<TRIPOS>SUBSTRUCTURE
     1 9K5         1 TEMP              0 ****  ****    0 ROOT
