@<TRIPOS>MOLECULE
9K5
   47    50     1     0     0
SMALL
No Charge or Current Charge


@<TRIPOS>ATOM
      1 C1          -2.6390    -0.1600     1.6880 ca         1 9K5       0.009000
      2 C2          -3.0560     0.0440     0.3530 ca         1 9K5      -0.161600
      3 C3          -4.3390    -0.3960    -0.0410 ca         1 9K5       0.047000
      4 O4           1.9860     0.9120     0.1260 os         1 9K5      -0.437000
      5 O5           3.3900     3.7030     1.0640 oh         1 9K5      -0.700000
      6 C7          -0.0170     1.7730    -1.0180 c3         1 9K5       0.164600
      7 C8           1.2590     2.1140    -0.2130 c5         1 9K5       0.158300
      8 C9           2.3200     2.9470    -0.9890 c5         1 9K5       0.092300
      9 C10          3.5310     2.7780    -0.0260 c5         1 9K5       0.104300
     10 C11          3.3620     1.2700     0.4080 c5         1 9K5       0.320300
     11 C12          4.7670     0.3730    -1.5290 cc         1 9K5       0.411700
     12 C13          5.4620    -1.4660    -0.6530 ca         1 9K5      -0.099600
     13 C14          4.6670    -0.8900     0.3050 ca         1 9K5       0.120500
     14 C15          5.0660    -2.6580     1.7010 ca         1 9K5       0.184900
     15 C16          6.0650    -2.7070    -0.3580 ca         1 9K5       0.453900
     16 O2          -2.4820     0.8940    -1.8210 o          1 9K5      -0.479000
     17 C6          -2.1580     0.7200    -0.6530 c          1 9K5       0.609700
     18 C4          -5.1920    -1.0320     0.8870 ca         1 9K5      -0.351500
     19 S           -6.8340    -1.5850     0.3720 sy         1 9K5       1.344400
     20 O1          -6.8720    -1.7430    -1.0910 o          1 9K5      -0.534000
     21 O           -7.3250    -2.6230     1.2920 o          1 9K5      -0.534000
     22 C5          -4.7660    -1.2270     2.2170 ca         1 9K5       0.022000
     23 C           -3.4910    -0.7910     2.6090 ca         1 9K5      -0.144000
     24 O3          -0.9540     1.1220    -0.1350 os         1 9K5      -0.432100
     25 O6           1.9650     4.3340    -1.1410 oh         1 9K5      -0.706000
     26 N            4.2230     0.2800    -0.2420 na         1 9K5      -0.312300
     27 N2           4.4510    -1.4660     1.5030 nb         1 9K5      -0.223000
     28 N3           5.8670    -3.3120     0.8240 nb         1 9K5      -0.303000
     29 N4           6.8660    -3.3620    -1.2400 nv         1 9K5      -1.063900
     30 N1           5.5390    -0.6930    -1.8150 nd         1 9K5      -0.552100
     31 H1          -1.6560     0.1660     2.0220 ha         1 9K5       0.143000
     32 H2          -4.6690    -0.2410    -1.0690 ha         1 9K5       0.164000
     33 H4          -0.4450     2.7020    -1.4180 h1         1 9K5       0.063200
     34 H5           0.2500     1.1230    -1.8620 h1         1 9K5       0.063200
     35 H6           0.9600     2.6240     0.7140 h1         1 9K5       0.093700
     36 H7           2.5240     2.4840    -1.9660 h1         1 9K5       0.059700
     37 H8           4.4860     2.9460    -0.5450 h1         1 9K5       0.081700
     38 H9           3.5600     1.1810     1.4850 h2         1 9K5       0.126700
     39 H10          4.5700     1.2100    -2.1890 h5         1 9K5       0.072800
     40 H11          4.9000    -3.1380     2.6630 h5         1 9K5       0.048100
     41 H14         -5.4130    -1.7130     2.9480 ha         1 9K5       0.142000
     42 H15         -3.1610    -0.9420     3.6340 ha         1 9K5       0.131000
     43 H16          2.2350     4.6170    -2.0500 ho         1 9K5       0.522000
     44 H17          6.8430    -3.0330    -2.2030 hn         1 9K5       0.508500
     45 H18          7.0180    -4.3570    -1.1030 hn         1 9K5       0.508500
     46 F1          -7.7100    -0.2500     0.6980 f          1 9K5      -0.262900
     47 H3           2.8440     4.4340     0.6750 ho         1 9K5       0.526000
@<TRIPOS>BOND
     1     1     2 ar  
     2     1    23 ar  
     3     1    31 1   
     4     2     3 ar  
     5     2    17 1   
     6     3    18 ar  
     7     3    32 1   
     8     4     7 1   
     9     4    10 1   
    10     5     9 1   
    11     5    47 1   
    12     6     7 1   
    13     6    24 1   
    14     6    33 1   
    15     6    34 1   
    16     7     8 1   
    17     7    35 1   
    18     8     9 1   
    19     8    25 1   
    20     8    36 1   
    21     9    10 1   
    22     9    37 1   
    23    10    26 1   
    24    10    38 1   
    25    11    26 1   
    26    11    30 2   
    27    11    39 1   
    28    12    13 ar  
    29    12    15 ar  
    30    12    30 1   
    31    13    26 1   
    32    13    27 ar  
    33    14    27 ar  
    34    14    28 ar  
    35    14    40 1   
    36    15    28 ar  
    37    15    29 1   
    38    16    17 2   
    39    17    24 1   
    40    18    19 1   
    41    18    22 ar  
    42    19    20 2   
    43    19    21 2   
    44    19    46 1   
    45    22    23 ar  
    46    22    41 1   
    47    23    42 1   
    48    25    43 1   
    49    29    44 1   
    50    29    45 1   
@<TRIPOS>SUBSTRUCTURE
     1 9K5         1 TEMP              0 ****  ****    0 ROOT
