@<TRIPOS>MOLECULE
9K6
   40    42     1     0     0
SMALL
No Charge or Current Charge


@<TRIPOS>ATOM
      1 C6          -0.4950    -1.2600     0.3870 ca         1 9K6      -0.261500
      2 C4           2.1410     2.6050     0.8710 c3         1 9K6      -0.098400
      3 C2           1.0030     1.0170    -1.7990 c3         1 9K6       0.155800
      4 C8          -2.6470    -0.8260    -0.7090 ca         1 9K6      -0.128000
      5 C10         -2.6240     1.8270    -0.0160 ca         1 9K6       0.331900
      6 C13         -1.7110    -3.0630    -0.7480 ca         1 9K6      -0.148000
      7 C1           2.0380    -1.3420    -1.6870 c3         1 9K6      -0.106100
      8 S            0.9420    -0.8250     1.4170 sy         1 9K6       1.190600
      9 O            1.6780    -2.0440     1.7740 o          1 9K6      -0.547500
     10 N            2.0110     0.0890     0.4330 n3         1 9K6      -0.776500
     11 C5           2.7490     1.2010     1.0660 c3         1 9K6       0.240800
     12 C3           1.9610     3.0490    -0.5970 c3         1 9K6       0.180800
     13 N1           0.8020     2.3770    -1.2130 n7         1 9K6      -0.894400
     14 C            2.0090     0.0670    -1.0580 c3         1 9K6       0.232500
     15 C14         -0.6120    -2.6170    -0.0010 ca         1 9K6       0.007000
     16 C12         -2.7280    -2.1720    -1.1050 ca         1 9K6      -0.030000
     17 C9          -3.6800     0.0640    -1.0600 ca         1 9K6       0.361900
     18 N2          -3.6800     1.3710    -0.7220 nb         1 9K6      -0.665000
     19 C11         -1.5550     1.0130     0.3830 ca         1 9K6      -0.138000
     20 C7          -1.5410    -0.3560     0.0390 ca         1 9K6       0.089000
     21 H2           2.8070     3.3240     1.3610 hc         1 9K6       0.052200
     22 H3           0.0330     0.5130    -1.8890 h1         1 9K6       0.035200
     23 H4           1.3780     1.1280    -2.8260 h1         1 9K6       0.035200
     24 H5          -2.6340     2.8870     0.2370 h4         1 9K6       0.020100
     25 H6          -1.7760    -4.1070    -1.0450 ha         1 9K6       0.122000
     26 H7           2.4900    -1.2950    -2.6850 hc         1 9K6       0.051700
     27 H8           2.6370    -2.0320    -1.0820 hc         1 9K6       0.051700
     28 H9           1.0330    -1.7530    -1.8130 hc         1 9K6       0.051700
     29 H10          3.7690     1.2280     0.6580 h1         1 9K6       0.059700
     30 H11          2.8700     1.0210     2.1430 h1         1 9K6       0.059700
     31 H12          1.7770     4.1320    -0.5880 h1         1 9K6       0.030200
     32 H13          2.8830     2.8820    -1.1710 h1         1 9K6       0.030200
     33 H14          0.4330     2.9820    -1.9570 hn         1 9K6       0.429000
     34 H16          2.9900     0.4730    -1.3410 h1         1 9K6       0.052700
     35 H17          0.1550    -3.3410     0.2680 ha         1 9K6       0.142000
     36 H18         -3.5800    -2.5280    -1.6810 ha         1 9K6       0.118000
     37 H19         -4.5410    -0.2800    -1.6320 h4         1 9K6       0.015100
     38 H20         -0.7460     1.4840     0.9200 ha         1 9K6       0.145000
     39 H1           1.1840     2.6730     1.3980 hc         1 9K6       0.052200
     40 O1           0.4610     0.0910     2.4570 o          1 9K6      -0.547500
@<TRIPOS>BOND
     1     1     8 1   
     2     1    15 ar  
     3     1    20 ar  
     4     2    11 1   
     5     2    12 1   
     6     2    21 1   
     7     2    39 1   
     8     3    13 1   
     9     3    14 1   
    10     3    22 1   
    11     3    23 1   
    12     4    16 ar  
    13     4    17 ar  
    14     4    20 ar  
    15     5    18 ar  
    16     5    19 ar  
    17     5    24 1   
    18     6    15 ar  
    19     6    16 ar  
    20     6    25 1   
    21     7    14 1   
    22     7    26 1   
    23     7    27 1   
    24     7    28 1   
    25     8     9 2   
    26     8    10 1   
    27     8    40 2   
    28    10    11 1   
    29    10    14 1   
    30    11    29 1   
    31    11    30 1   
    32    12    13 1   
    33    12    31 1   
    34    12    32 1   
    35    13    33 1   
    36    14    34 1   
    37    15    35 1   
    38    16    36 1   
    39    17    18 ar  
    40    17    37 1   
    41    19    20 ar  
    42    19    38 1   
@<TRIPOS>SUBSTRUCTURE
     1 9K6         1 TEMP              0 ****  ****    0 ROOT
