@<TRIPOS>MOLECULE
9K6
   40    42     1     0     0
SMALL
bcc


@<TRIPOS>ATOM
      1 C6          -0.5120    -1.1290     0.3280 ca         1 9K6      -0.261500
      2 C4           1.7130     2.6100     0.5170 c3         1 9K6      -0.098400
      3 C2           1.2370     0.4160    -1.9350 c3         1 9K6       0.155800
      4 C8          -2.6100    -0.3760    -0.6250 ca         1 9K6      -0.193300
      5 C10         -2.5830     1.9660     0.7460 ca         1 9K6       0.397200
      6 C13         -1.7540    -2.5530    -1.1860 ca         1 9K6      -0.166000
      7 C1           2.7350    -1.5270    -1.3400 c3         1 9K6      -0.106100
      8 S            0.9770    -0.9150     1.2880 sy         1 9K6       1.332200
      9 O            1.5890    -2.2350     1.3720 o          1 9K6      -0.618300
     10 N            1.9490     0.0940     0.4480 n3         1 9K6      -0.776500
     11 C5           2.4220     1.3600     1.0200 c3         1 9K6       0.240800
     12 C3           1.4800     2.6730    -0.9900 c3         1 9K6       0.180800
     13 N1           0.6000     1.6080    -1.4360 n7         1 9K6      -0.839200
     14 C            2.2960    -0.1190    -0.9640 c3         1 9K6       0.232500
     15 C14         -0.6530    -2.3180    -0.3440 ca         1 9K6      -0.011000
     16 C12         -2.7090    -1.5890    -1.3380 ca         1 9K6      -0.048000
     17 C9          -3.6170     0.6120    -0.7460 ca         1 9K6       0.427200
     18 N2          -3.6160     1.7400    -0.0960 nb         1 9K6      -0.665000
     19 C11         -1.5430     1.1020     0.9370 ca         1 9K6      -0.221300
     20 C7          -1.5140    -0.1230     0.2350 ca         1 9K6       0.089000
     21 H2           2.3160     3.4680     0.8280 hc         1 9K6       0.052200
     22 H3           0.4620    -0.3370    -2.1080 h1         1 9K6       0.035200
     23 H4           1.7550     0.5540    -2.8980 h1         1 9K6       0.035200
     24 H5          -2.6090     2.9030     1.2880 h4         1 9K6       0.020100
     25 H6          -1.8280    -3.4960    -1.7100 ha         1 9K6       0.140000
     26 H7           3.1160    -1.4980    -2.3610 hc         1 9K6       0.051700
     27 H8           3.5370    -1.8790    -0.6950 hc         1 9K6       0.051700
     28 H9           1.9260    -2.2540    -1.3190 hc         1 9K6       0.051700
     29 H10          3.4850     1.4160     0.7710 h1         1 9K6       0.059700
     30 H11          2.3700     1.3160     2.1050 h1         1 9K6       0.059700
     31 H12          1.0020     3.6280    -1.2140 h1         1 9K6       0.030200
     32 H13          2.4390     2.6860    -1.5310 h1         1 9K6       0.030200
     33 H14         -0.0680     1.9490    -2.1100 hn         1 9K6       0.373800
     34 H16          3.1850     0.5040    -1.0880 h1         1 9K6       0.052700
     35 H17          0.0910    -3.0950    -0.2430 ha         1 9K6       0.160000
     36 H18         -3.5570    -1.7490    -1.9930 ha         1 9K6       0.136000
     37 H19         -4.4500     0.4220    -1.4170 h4         1 9K6       0.015100
     38 H20         -0.7680     1.3680     1.6350 ha         1 9K6       0.163000
     39 H1           0.7460     2.7150     1.0100 hc         1 9K6       0.052200
     40 O1           0.6470    -0.2610     2.5490 o          1 9K6      -0.618300
@<TRIPOS>BOND
     1     1     8 1   
     2     1    15 ar  
     3     1    20 ar  
     4     2    11 1   
     5     2    12 1   
     6     2    21 1   
     7     2    39 1   
     8     3    13 1   
     9     3    14 1   
    10     3    22 1   
    11     3    23 1   
    12     4    16 ar  
    13     4    17 ar  
    14     4    20 ar  
    15     5    18 ar  
    16     5    19 ar  
    17     5    24 1   
    18     6    15 ar  
    19     6    16 ar  
    20     6    25 1   
    21     7    14 1   
    22     7    26 1   
    23     7    27 1   
    24     7    28 1   
    25     8     9 2   
    26     8    10 1   
    27     8    40 2   
    28    10    11 1   
    29    10    14 1   
    30    11    29 1   
    31    11    30 1   
    32    12    13 1   
    33    12    31 1   
    34    12    32 1   
    35    13    33 1   
    36    14    34 1   
    37    15    35 1   
    38    16    36 1   
    39    17    18 ar  
    40    17    37 1   
    41    19    20 ar  
    42    19    38 1   
@<TRIPOS>SUBSTRUCTURE
     1 9K6         1 TEMP              0 ****  ****    0 ROOT
