@<TRIPOS>MOLECULE
9K8
   53    56     1     0     0
SMALL
No Charge or Current Charge


@<TRIPOS>ATOM
      1 C1           5.6600     1.8030     2.2090 c3         1 9K8      -0.063100
      2 C2           4.7000     0.9740     1.3470 ca         1 9K8       0.068700
      3 C3           3.4230     0.7280     1.8850 ca         1 9K8      -0.152000
      4 O4          -2.3470    -0.9430     0.1760 os         1 9K8      -0.436000
      5 O5          -3.8730    -3.3580     1.7530 oh         1 9K8      -0.701000
      6 C7           5.0040     0.4690     0.0510 ca         1 9K8      -0.337500
      7 C9          -0.5140    -2.1890    -0.8960 c3         1 9K8       0.162600
      8 C10         -1.7420    -2.2480     0.0440 c5         1 9K8       0.158300
      9 C11         -2.9220    -3.1200    -0.4750 c5         1 9K8       0.091300
     10 C12         -4.0350    -2.6570     0.5090 c5         1 9K8       0.105300
     11 C13         -3.7180    -1.1140     0.6160 c5         1 9K8       0.320300
     12 C14         -5.2060    -0.4920    -1.3660 cc         1 9K8       0.412700
     13 C15         -5.6900     1.5370    -0.8350 ca         1 9K8      -0.099600
     14 C16         -4.8640     1.0910     0.1650 ca         1 9K8       0.120500
     15 O2           1.9340    -1.7090    -2.0200 o          1 9K8      -0.478000
     16 C5           2.7460    -0.4980    -0.1080 ca         1 9K8      -0.164600
     17 C4           2.4560     0.0020     1.1760 ca         1 9K8       0.010000
     18 C6           4.0200    -0.2590    -0.6610 ca         1 9K8       0.035000
     19 S            6.6160     0.7060    -0.7590 sy         1 9K8       1.335400
     20 O1           7.6910     0.2320     0.1260 o          1 9K8      -0.534500
     21 O            6.5360     0.2940    -2.1690 o          1 9K8      -0.534500
     22 C            5.3320     3.3100     2.1710 c3         1 9K8      -0.089100
     23 O3           0.5370    -1.4620    -0.2280 os         1 9K8      -0.432100
     24 O6          -2.6850    -4.5360    -0.3640 oh         1 9K8      -0.706000
     25 N           -4.5540    -0.1980    -0.1630 na         1 9K8      -0.314300
     26 N2          -4.5090     1.8690     1.2060 nb         1 9K8      -0.224000
     27 C17         -5.0170     3.1250     1.2000 ca         1 9K8       0.183900
     28 N3          -5.8360     3.6640     0.2630 nb         1 9K8      -0.302000
     29 C18         -6.1740     2.8590    -0.7570 ca         1 9K8       0.452900
     30 N4          -6.9940     3.3970    -1.6990 nv         1 9K8      -1.063900
     31 N1          -5.9180     0.5610    -1.8100 nd         1 9K8      -0.552100
     32 F            6.7320     2.3300    -0.7630 f          1 9K8      -0.263900
     33 H1           5.5920     1.4650     3.2500 hc         1 9K8       0.068700
     34 H2           6.7100     1.6620     1.9410 hc         1 9K8       0.068700
     35 H3           3.1720     1.1090     2.8720 ha         1 9K8       0.126000
     36 H5          -0.1900    -3.2130    -1.1240 h1         1 9K8       0.063200
     37 H6          -0.8000    -1.6990    -1.8360 h1         1 9K8       0.063200
     38 H7          -1.4070    -2.5900     1.0330 h1         1 9K8       0.093700
     39 H8          -3.1710    -2.8440    -1.5110 h1         1 9K8       0.059700
     40 H9          -5.0380    -2.8370     0.0990 h1         1 9K8       0.083700
     41 H10         -3.8180    -0.7970     1.6630 h2         1 9K8       0.125700
     42 H11         -5.1260    -1.4560    -1.8560 h5         1 9K8       0.073800
     43 H12          1.4820    -0.1600     1.6340 ha         1 9K8       0.143000
     44 H13          4.2420    -0.6510    -1.6540 ha         1 9K8       0.165000
     45 H15          4.3180     3.4970     2.5450 hc         1 9K8       0.045033
     46 H16          6.0350     3.8720     2.7980 hc         1 9K8       0.045033
     47 H17          5.3970     3.7000     1.1490 hc         1 9K8       0.045033
     48 H18         -3.0360    -4.9670    -1.1820 ho         1 9K8       0.522000
     49 H19         -4.7380     3.7680     2.0330 h5         1 9K8       0.048100
     50 H20         -7.0740     2.8870    -2.5750 hn         1 9K8       0.508000
     51 H21         -7.0610     4.4100    -1.7560 hn         1 9K8       0.508000
     52 C8           1.7220    -1.2790    -0.8940 c          1 9K8       0.610700
     53 H4          -3.4170    -4.1960     1.4850 ho         1 9K8       0.526000
@<TRIPOS>BOND
     1     1     2 1   
     2     1    22 1   
     3     1    33 1   
     4     1    34 1   
     5     2     3 ar  
     6     2     6 ar  
     7     3    17 ar  
     8     3    35 1   
     9     4     8 1   
    10     4    11 1   
    11     5    10 1   
    12     5    53 1   
    13     6    18 ar  
    14     6    19 1   
    15     7     8 1   
    16     7    23 1   
    17     7    36 1   
    18     7    37 1   
    19     8     9 1   
    20     8    38 1   
    21     9    10 1   
    22     9    24 1   
    23     9    39 1   
    24    10    11 1   
    25    10    40 1   
    26    11    25 1   
    27    11    41 1   
    28    12    25 1   
    29    12    31 2   
    30    12    42 1   
    31    13    14 ar  
    32    13    29 ar  
    33    13    31 1   
    34    14    25 1   
    35    14    26 ar  
    36    15    52 2   
    37    16    17 ar  
    38    16    18 ar  
    39    16    52 1   
    40    17    43 1   
    41    18    44 1   
    42    19    20 2   
    43    19    21 2   
    44    19    32 1   
    45    22    45 1   
    46    22    46 1   
    47    22    47 1   
    48    23    52 1   
    49    24    48 1   
    50    26    27 ar  
    51    27    28 ar  
    52    27    49 1   
    53    28    29 ar  
    54    29    30 1   
    55    30    50 1   
    56    30    51 1   
@<TRIPOS>SUBSTRUCTURE
     1 9K8         1 TEMP              0 ****  ****    0 ROOT
