@<TRIPOS>MOLECULE
9K8
   53    56     1     0     0
SMALL
bcc


@<TRIPOS>ATOM
      1 C1           5.8620     1.6550     1.8770 c3         1 9K8      -0.063100
      2 C2           4.8250     0.8410     1.1530 ca         1 9K8       0.068700
      3 C3           3.5630     0.7380     1.7340 ca         1 9K8      -0.170000
      4 O4          -2.0250    -0.8130     0.9100 os         1 9K8      -0.389600
      5 O5          -3.9570    -2.7860     2.0580 oh         1 9K8      -0.578800
      6 C7           4.9790     0.2320    -0.1000 ca         1 9K8      -0.337500
      7 C9          -0.6310    -1.9400    -0.7030 c3         1 9K8       0.139400
      8 C10         -1.6740    -2.0850     0.3750 c5         1 9K8       0.135100
      9 C11         -2.9830    -2.6690    -0.1530 c5         1 9K8       0.068100
     10 C12         -3.9950    -2.0920     0.8430 c5         1 9K8       0.082100
     11 C13         -3.4060    -0.7050     1.0880 c5         1 9K8       0.267800
     12 C14         -3.2920     0.8900    -0.9000 cc         1 9K8       0.412700
     13 C15         -5.2360     1.7150    -0.8570 ca         1 9K8      -0.230200
     14 C16         -5.1850     0.8080     0.1900 ca         1 9K8       0.448800
     15 O2           1.7030    -1.6160    -1.9850 o          1 9K8      -0.527000
     16 C5           2.6970    -0.5070    -0.1320 ca         1 9K8      -0.164600
     17 C4           2.5180     0.0750     1.1200 ca         1 9K8      -0.008000
     18 C6           3.9380    -0.4250    -0.7430 ca         1 9K8       0.017000
     19 S            6.5370     0.1760    -0.9220 sy         1 9K8       1.477000
     20 O1           7.5860    -0.2760    -0.0470 o          1 9K8      -0.605300
     21 O            6.3990    -0.3760    -2.2420 o          1 9K8      -0.605300
     22 C            5.6260     3.1530     1.6750 c3         1 9K8      -0.089100
     23 O3           0.5200    -1.3370    -0.1110 os         1 9K8      -0.408900
     24 O6          -2.9210    -4.0650    -0.1620 oh         1 9K8      -0.583800
     25 N           -3.9290     0.2780     0.1460 na         1 9K8      -0.285000
     26 N2          -6.1640     0.5270     1.0480 nb         1 9K8      -0.750000
     27 C17         -7.2500     1.2350     0.7930 ca         1 9K8       0.709900
     28 N3          -7.4460     2.1340    -0.1680 nb         1 9K8      -0.828000
     29 C18         -6.4510     2.4050    -1.0210 ca         1 9K8       0.781200
     30 N4          -6.6450     3.3050    -1.9860 nv         1 9K8      -0.953500
     31 N1          -4.0410     1.7520    -1.5250 nd         1 9K8      -0.552100
     32 F            6.7970     1.7410    -1.1340 f          1 9K8      -0.263900
     33 H1           5.7850     1.4230     2.9410 hc         1 9K8       0.068700
     34 H2           6.8770     1.3960     1.5880 hc         1 9K8       0.068700
     35 H3           3.3990     1.1920     2.7030 ha         1 9K8       0.144000
     36 H5          -0.3890    -2.9290    -1.0970 h1         1 9K8       0.063200
     37 H6          -0.9920    -1.3230    -1.5300 h1         1 9K8       0.063200
     38 H7          -1.2810    -2.7210     1.1770 h1         1 9K8       0.093700
     39 H8          -3.1950    -2.2670    -1.1530 h1         1 9K8       0.059700
     40 H9          -5.0100    -2.0430     0.4300 h1         1 9K8       0.083700
     41 H10         -3.6350    -0.3440     2.0940 h2         1 9K8       0.125700
     42 H11         -2.2670     0.6740    -1.1510 h5         1 9K8       0.073800
     43 H12          1.5620     0.0270     1.6220 ha         1 9K8       0.161000
     44 H13          4.0870    -0.8790    -1.7120 ha         1 9K8       0.183000
     45 H15          4.6420     3.4510     2.0390 hc         1 9K8       0.045033
     46 H16          6.3730     3.7250     2.2240 hc         1 9K8       0.045033
     47 H17          5.6940     3.4340     0.6250 hc         1 9K8       0.045033
     48 H18         -3.5990    -4.4030    -0.7560 ho         1 9K8       0.423000
     49 H19         -8.0970     1.0650     1.4500 h5         1 9K8       0.048100
     50 H20         -5.9090     3.5490    -2.6240 hn         1 9K8       0.452800
     51 H21         -7.5210     3.7920    -2.0580 hn         1 9K8       0.452800
     52 C8           1.6060    -1.2110    -0.8540 c          1 9K8       0.659700
     53 H4          -3.8690    -3.7270     1.8620 ho         1 9K8       0.427000
@<TRIPOS>BOND
     1     1     2 1   
     2     1    22 1   
     3     1    33 1   
     4     1    34 1   
     5     2     3 ar  
     6     2     6 ar  
     7     3    17 ar  
     8     3    35 1   
     9     4     8 1   
    10     4    11 1   
    11     5    10 1   
    12     5    53 1   
    13     6    18 ar  
    14     6    19 1   
    15     7     8 1   
    16     7    23 1   
    17     7    36 1   
    18     7    37 1   
    19     8     9 1   
    20     8    38 1   
    21     9    10 1   
    22     9    24 1   
    23     9    39 1   
    24    10    11 1   
    25    10    40 1   
    26    11    25 1   
    27    11    41 1   
    28    12    25 1   
    29    12    31 2   
    30    12    42 1   
    31    13    14 ar  
    32    13    29 ar  
    33    13    31 1   
    34    14    25 1   
    35    14    26 ar  
    36    15    52 2   
    37    16    17 ar  
    38    16    18 ar  
    39    16    52 1   
    40    17    43 1   
    41    18    44 1   
    42    19    20 2   
    43    19    21 2   
    44    19    32 1   
    45    22    45 1   
    46    22    46 1   
    47    22    47 1   
    48    23    52 1   
    49    24    48 1   
    50    26    27 ar  
    51    27    28 ar  
    52    27    49 1   
    53    28    29 ar  
    54    29    30 1   
    55    30    50 1   
    56    30    51 1   
@<TRIPOS>SUBSTRUCTURE
     1 9K8         1 TEMP              0 ****  ****    0 ROOT
