@<TRIPOS>MOLECULE
9K9
   35    38     1     0     0
SMALL
bcc


@<TRIPOS>ATOM
      1 O           -5.3980     1.0620    -1.1030 o          1 9K9      -0.524100
      2 C2          -4.5040     0.5080    -0.4770 c          1 9K9       0.663000
      3 C           -3.1020     0.8360    -0.6180 cc         1 9K9       0.193800
      4 N3          -2.4690     1.7650    -1.4040 nc         1 9K9      -0.579000
      5 C4          -1.2090     1.6400    -1.1380 cd         1 9K9       0.399400
      6 N1          -4.7780    -0.4890     0.4280 nc         1 9K9      -0.788100
      7 C3          -3.8480    -1.1010     1.1100 cd         1 9K9       0.906100
      8 N4          -4.1790    -2.0820     1.9580 nv         1 9K9      -0.946800
      9 N           -2.5120    -0.8230     1.0010 na         1 9K9      -0.729600
     10 C1          -2.1760     0.1580     0.1270 cd         1 9K9       0.068000
     11 N2          -0.9610     0.6610    -0.1980 na         1 9K9      -0.229900
     12 C5           0.3350     0.2750     0.2940 c5         1 9K9       0.257800
     13 C6           1.2380    -0.3400    -0.7930 c5         1 9K9       0.090100
     14 O3           1.7390    -1.6000    -0.3810 os         1 9K9      -0.533200
     15 O1           0.9760     1.4330     0.7440 os         1 9K9      -0.379600
     16 C8           2.3690     1.3390     0.5000 c5         1 9K9       0.121100
     17 C9           2.9770     2.7180     0.4520 c3         1 9K9       0.152400
     18 O2           2.8910     3.3000     1.7260 oh         1 9K9      -0.580800
     19 C7           2.4510     0.6010    -0.8380 c5         1 9K9       0.101100
     20 O4           3.6120    -0.1990    -0.9630 os         1 9K9      -0.512200
     21 P            3.3350    -1.7420    -0.5880 p5         1 9K9       1.562500
     22 O6           3.5430    -2.4760    -1.9780 oh         1 9K9      -0.734400
     23 O5           4.0550    -2.3160     0.5570 o          1 9K9      -0.759300
     24 H1          -0.4110     2.2240    -1.5720 h5         1 9K9       0.062100
     25 H2          -5.1540    -2.2310     2.1480 hn         1 9K9       0.450800
     26 H3          -3.5190    -2.4670     2.6110 hn         1 9K9       0.450800
     27 H4          -1.8310    -1.3200     1.5560 hn         1 9K9       0.450800
     28 H5           0.1920    -0.4540     1.1000 h2         1 9K9       0.085700
     29 H6           0.7240    -0.4450    -1.7500 h1         1 9K9       0.110700
     30 H7           2.8580     0.7450     1.2850 h1         1 9K9       0.081700
     31 H8           4.0160     2.6060     0.1170 h1         1 9K9       0.036700
     32 H9           2.4550     3.3090    -0.3120 h1         1 9K9       0.036700
     33 H10          3.3330     4.1540     1.6960 ho         1 9K9       0.416000
     34 H11          2.4070     1.2880    -1.6850 h1         1 9K9       0.109700
     35 H12          3.9950    -3.3280    -1.9150 ho         1 9K9       0.490000
@<TRIPOS>BOND
     1     1     2 2   
     2     2     3 1   
     3     2     6 1   
     4     3     4 1   
     5     3    10 2   
     6     4     5 2   
     7     5    11 1   
     8     5    24 1   
     9     6     7 2   
    10     7     8 1   
    11     7     9 1   
    12     8    25 1   
    13     8    26 1   
    14     9    10 1   
    15     9    27 1   
    16    10    11 1   
    17    11    12 1   
    18    12    13 1   
    19    12    15 1   
    20    12    28 1   
    21    13    14 1   
    22    13    19 1   
    23    13    29 1   
    24    14    21 1   
    25    15    16 1   
    26    16    17 1   
    27    16    19 1   
    28    16    30 1   
    29    17    18 1   
    30    17    31 1   
    31    17    32 1   
    32    18    33 1   
    33    19    20 1   
    34    19    34 1   
    35    20    21 1   
    36    21    22 1   
    37    21    23 2   
    38    22    35 1   
@<TRIPOS>SUBSTRUCTURE
     1 9K9         1 TEMP              0 ****  ****    0 ROOT
