@<TRIPOS>MOLECULE
9K9
   35    38     1     0     0
SMALL
No Charge or Current Charge


@<TRIPOS>ATOM
      1 O           -5.6540     0.6070    -0.4560 o          1 9K9      -0.524100
      2 C2          -4.5380     0.1600    -0.2300 c          1 9K9       0.663000
      3 C           -3.3050     0.9730    -0.1180 cc         1 9K9       0.128500
      4 N3          -3.0600     2.3270    -0.2330 nc         1 9K9      -0.579000
      5 C4          -1.7350     2.4610    -0.0410 cd         1 9K9       0.399400
      6 N1          -4.3340    -1.1950    -0.0520 nc         1 9K9      -0.788100
      7 C3          -3.1690    -1.7170     0.1780 cd         1 9K9       0.906100
      8 N4          -3.0750    -2.9930     0.3500 nv         1 9K9      -1.057200
      9 N           -2.0190    -1.0240     0.2910 na         1 9K9      -0.923200
     10 C1          -2.1530     0.3430     0.1410 cd         1 9K9       0.221000
     11 N2          -1.1190     1.2260     0.1890 na         1 9K9      -0.208500
     12 C5           0.2870     0.9540     0.4700 c5         1 9K9       0.310300
     13 C6           0.9660    -0.1380    -0.4110 c5         1 9K9       0.113300
     14 O3           0.9110    -1.4010     0.3090 os         1 9K9      -0.556400
     15 O1           1.0880     2.1220     0.2460 os         1 9K9      -0.426000
     16 C8           2.4630     1.6910     0.3200 c5         1 9K9       0.144300
     17 C9           3.4150     2.7650    -0.2710 c3         1 9K9       0.175600
     18 O2           3.4920     3.9240     0.5820 oh         1 9K9      -0.703000
     19 C7           2.4760     0.3230    -0.4360 c5         1 9K9       0.124300
     20 O4           3.2050    -0.6310     0.3730 os         1 9K9      -0.535400
     21 P            2.3900    -2.0120     0.4250 p5         1 9K9       1.333200
     22 O6           2.6030    -2.6070    -1.0320 oh         1 9K9      -0.743400
     23 O5           2.6450    -2.9430     1.5530 o          1 9K9      -0.530000
     24 H1          -1.1760     3.3890    -0.0540 h5         1 9K9       0.062100
     25 H2          -3.9860    -3.4180     0.4520 hn         1 9K9       0.506000
     26 H3          -2.4040    -3.2760     1.0460 hn         1 9K9       0.506000
     27 H4          -1.1270    -1.4910     0.4130 hn         1 9K9       0.506000
     28 H5           0.3410     0.6720     1.5290 h2         1 9K9       0.085700
     29 H6           0.5240    -0.2260    -1.4130 h1         1 9K9       0.110700
     30 H7           2.7240     1.5420     1.3770 h1         1 9K9       0.081700
     31 H8           4.4130     2.3180    -0.3870 h1         1 9K9       0.036700
     32 H9           3.0590     3.0440    -1.2730 h1         1 9K9       0.036700
     33 H10          4.0680     4.5810     0.1250 ho         1 9K9       0.515000
     34 H11          2.8920     0.3800    -1.4520 h1         1 9K9       0.109700
     35 H12          2.3390    -3.5190    -0.8120 ho         1 9K9       0.499000
@<TRIPOS>BOND
     1     1     2 2   
     2     2     3 1   
     3     2     6 1   
     4     3     4 1   
     5     3    10 2   
     6     4     5 2   
     7     5    11 1   
     8     5    24 1   
     9     6     7 2   
    10     7     8 1   
    11     7     9 1   
    12     8    25 1   
    13     8    26 1   
    14     9    10 1   
    15     9    27 1   
    16    10    11 1   
    17    11    12 1   
    18    12    13 1   
    19    12    15 1   
    20    12    28 1   
    21    13    14 1   
    22    13    19 1   
    23    13    29 1   
    24    14    21 1   
    25    15    16 1   
    26    16    17 1   
    27    16    19 1   
    28    16    30 1   
    29    17    18 1   
    30    17    31 1   
    31    17    32 1   
    32    18    33 1   
    33    19    20 1   
    34    19    34 1   
    35    20    21 1   
    36    21    22 1   
    37    21    23 2   
    38    22    35 1   
@<TRIPOS>SUBSTRUCTURE
     1 9K9         1 TEMP              0 ****  ****    0 ROOT
