@<TRIPOS>MOLECULE
9KB
   44    46     1     0     0
SMALL
bcc


@<TRIPOS>ATOM
      1 C10          7.6110    -0.2800    -0.7290 cc         1 9KB       0.296200
      2 C13         -0.1260     1.4910     0.7050 c6         1 9KB       0.145800
      3 C17         -3.9500     0.1690    -0.8750 ca         1 9KB      -0.129300
      4 C20         -6.1190    -0.2700     0.7870 ca         1 9KB       0.139900
      5 C22         -5.2450    -1.3120     0.5360 ca         1 9KB      -0.174000
      6 C02         -0.6820    -0.6190    -1.0340 c          1 9KB       0.713500
      7 C03          0.6390    -0.4950    -0.3020 c6         1 9KB       0.072800
      8 N04          1.0080     0.8510     0.0740 n3         1 9KB      -0.704600
      9 C05          2.1800     0.8730     0.9300 c3         1 9KB       0.168800
     10 C06          3.4330     0.3440     0.2460 c3         1 9KB      -0.103400
     11 C07          4.6560     0.5630     1.1260 c3         1 9KB       0.043300
     12 N08          5.8650     0.0280     0.5320 na         1 9KB      -0.191900
     13 C09          6.6220     0.6170    -0.4410 cd         1 9KB      -0.266600
     14 N11          7.4700    -1.4000     0.0390 nc         1 9KB      -0.670000
     15 C12          6.4120    -1.1810     0.7770 cd         1 9KB       0.386400
     16 C14         -1.2240     1.6720    -0.3150 c6         1 9KB       0.111000
     17 N15         -1.5100     0.4380    -1.0240 n          1 9KB      -0.467800
     18 C16         -2.7590     0.4080    -1.7660 c3         1 9KB       0.145300
     19 C18         -4.8500     1.1910    -0.5960 ca         1 9KB      -0.089500
     20 C19         -5.9430     0.9830     0.2360 ca         1 9KB      -0.174000
     21 F21         -7.1740    -0.4860     1.5900 f          1 9KB      -0.143900
     22 C23         -4.1620    -1.0830    -0.2980 ca         1 9KB      -0.089500
     23 H1           8.4150    -0.1710    -1.4410 h4         1 9KB       0.038100
     24 H2          -0.4960     0.9150     1.5690 h1         1 9KB       0.045700
     25 H3           0.1670     2.4740     1.0750 h1         1 9KB       0.045700
     26 H4          -5.4100    -2.2860     0.9800 ha         1 9KB       0.151000
     27 H5           0.5730    -1.1660     0.5740 h1         1 9KB       0.067700
     28 H6           1.3910    -0.9270    -0.9640 h1         1 9KB       0.067700
     29 H8           2.3490     1.9120     1.2250 h1         1 9KB       0.033700
     30 H9           2.0060     0.3060     1.8610 h1         1 9KB       0.033700
     31 H10          3.3400    -0.7230     0.0350 hc         1 9KB       0.065200
     32 H11          3.5690     0.8540    -0.7110 hc         1 9KB       0.065200
     33 H12          4.8100     1.6260     1.3130 h1         1 9KB       0.058700
     34 H13          4.5210     0.0830     2.0960 h1         1 9KB       0.058700
     35 H14          6.4010     1.5990    -0.8250 h4         1 9KB       0.173000
     36 H15          5.9980    -1.8570     1.5120 h5         1 9KB       0.051100
     37 H16         -2.1340     2.0030     0.1920 h1         1 9KB       0.050700
     38 H17         -0.9520     2.4500    -1.0340 h1         1 9KB       0.050700
     39 H18         -2.6950    -0.3610    -2.5330 h1         1 9KB       0.067200
     40 H19         -2.8680     1.3670    -2.2800 h1         1 9KB       0.067200
     41 H20         -4.7040     2.1710    -1.0350 ha         1 9KB       0.141500
     42 H21         -6.6410     1.7820     0.4500 ha         1 9KB       0.151000
     43 H22         -3.4760    -1.8950    -0.5070 ha         1 9KB       0.141500
     44 O01         -0.9510    -1.6770    -1.5920 o          1 9KB      -0.647500
@<TRIPOS>BOND
     1     1    13 2   
     2     1    14 1   
     3     1    23 1   
     4     2     8 1   
     5     2    16 1   
     6     2    24 1   
     7     2    25 1   
     8     3    18 1   
     9     3    19 ar  
    10     3    22 ar  
    11     4     5 ar  
    12     4    20 ar  
    13     4    21 1   
    14     5    22 ar  
    15     5    26 1   
    16     6     7 1   
    17     6    17 1   
    18     6    44 2   
    19     7     8 1   
    20     7    27 1   
    21     7    28 1   
    22     8     9 1   
    23     9    10 1   
    24     9    29 1   
    25     9    30 1   
    26    10    11 1   
    27    10    31 1   
    28    10    32 1   
    29    11    12 1   
    30    11    33 1   
    31    11    34 1   
    32    12    13 1   
    33    12    15 1   
    34    13    35 1   
    35    14    15 2   
    36    15    36 1   
    37    16    17 1   
    38    16    37 1   
    39    16    38 1   
    40    17    18 1   
    41    18    39 1   
    42    18    40 1   
    43    19    20 ar  
    44    19    41 1   
    45    20    42 1   
    46    22    43 1   
@<TRIPOS>SUBSTRUCTURE
     1 9KB         1 TEMP              0 ****  ****    0 ROOT
