@<TRIPOS>MOLECULE
9KB
   44    46     1     0     0
SMALL
No Charge or Current Charge


@<TRIPOS>ATOM
      1 C10          7.7820    -0.4080    -0.5790 cc         1 9KB       0.230900
      2 C13         -0.0830     1.7390     0.5200 c6         1 9KB       0.145800
      3 C17         -4.0780     0.1190    -0.8570 ca         1 9KB      -0.129300
      4 C20         -6.1870    -0.4840     0.9040 ca         1 9KB       0.175000
      5 C22         -5.3940    -1.5180     0.3850 ca         1 9KB      -0.156000
      6 C02         -0.7510    -0.5920    -1.0930 c          1 9KB       0.571000
      7 C03          0.5880    -0.4530    -0.3070 c6         1 9KB       0.072800
      8 N04          1.0560     0.9450    -0.0100 n3         1 9KB      -0.704600
      9 C05          2.2470     1.0060     0.8710 c3         1 9KB       0.168800
     10 C06          3.5130     0.3610     0.2710 c3         1 9KB      -0.103400
     11 C07          4.7600     0.5780     1.1510 c3         1 9KB       0.072600
     12 N08          5.9700    -0.0340     0.5830 na         1 9KB      -0.170500
     13 C09          6.8060     0.5260    -0.3670 cd         1 9KB      -0.234000
     14 N11          7.5870    -1.5170     0.1960 nc         1 9KB      -0.670000
     15 C12          6.4840    -1.2840     0.8990 cd         1 9KB       0.386400
     16 C14         -1.2540     1.8220    -0.4970 c6         1 9KB       0.111000
     17 N15         -1.6240     0.5210    -1.1170 n          1 9KB      -0.400800
     18 C16         -2.9310     0.4440    -1.8050 c3         1 9KB       0.145300
     19 C18         -4.8800     1.1520    -0.3310 ca         1 9KB      -0.071500
     20 C19         -5.9340     0.8500     0.5490 ca         1 9KB      -0.156000
     21 F21         -7.2000    -0.7730     1.7500 f          1 9KB      -0.179000
     22 C23         -4.3400    -1.2180    -0.4950 ca         1 9KB      -0.071500
     23 H1           8.6280    -0.3530    -1.2530 h4         1 9KB       0.038100
     24 H2          -0.4560     1.2870     1.4510 h1         1 9KB       0.045700
     25 H3           0.2370     2.7620     0.7650 h1         1 9KB       0.045700
     26 H4          -5.5970    -2.5490     0.6650 ha         1 9KB       0.133000
     27 H5           0.4350    -1.0070     0.6300 h1         1 9KB       0.067700
     28 H6           1.3410    -0.9990    -0.8930 h1         1 9KB       0.067700
     29 H8           2.4800     2.0590     1.0830 h1         1 9KB       0.033700
     30 H9           2.0270     0.5260     1.8340 h1         1 9KB       0.033700
     31 H10          3.3570    -0.7160     0.1410 hc         1 9KB       0.065200
     32 H11          3.6960     0.7870    -0.7230 hc         1 9KB       0.065200
     33 H12          4.9380     1.6540     1.2750 h1         1 9KB       0.058700
     34 H13          4.5830     0.1510     2.1470 h1         1 9KB       0.058700
     35 H14          6.6550     1.5040    -0.8070 h4         1 9KB       0.155000
     36 H15          6.0160    -1.9410     1.6230 h5         1 9KB       0.051100
     37 H16         -2.1300     2.2550     0.0040 h1         1 9KB       0.050700
     38 H17         -0.9660     2.5130    -1.3020 h1         1 9KB       0.050700
     39 H18         -2.8930    -0.3090    -2.6040 h1         1 9KB       0.067200
     40 H19         -3.1280     1.4060    -2.2960 h1         1 9KB       0.067200
     41 H20         -4.6860     2.1880    -0.6020 ha         1 9KB       0.123500
     42 H21         -6.5520     1.6450     0.9560 ha         1 9KB       0.133000
     43 H22         -3.7260    -2.0230    -0.8940 ha         1 9KB       0.123500
     44 O01         -1.0320    -1.6400    -1.6640 o          1 9KB      -0.572000
@<TRIPOS>BOND
     1     1    13 2   
     2     1    14 1   
     3     1    23 1   
     4     2     8 1   
     5     2    16 1   
     6     2    24 1   
     7     2    25 1   
     8     3    18 1   
     9     3    19 ar  
    10     3    22 ar  
    11     4     5 ar  
    12     4    20 ar  
    13     4    21 1   
    14     5    22 ar  
    15     5    26 1   
    16     6     7 1   
    17     6    17 1   
    18     6    44 2   
    19     7     8 1   
    20     7    27 1   
    21     7    28 1   
    22     8     9 1   
    23     9    10 1   
    24     9    29 1   
    25     9    30 1   
    26    10    11 1   
    27    10    31 1   
    28    10    32 1   
    29    11    12 1   
    30    11    33 1   
    31    11    34 1   
    32    12    13 1   
    33    12    15 1   
    34    13    35 1   
    35    14    15 2   
    36    15    36 1   
    37    16    17 1   
    38    16    37 1   
    39    16    38 1   
    40    17    18 1   
    41    18    39 1   
    42    18    40 1   
    43    19    20 ar  
    44    19    41 1   
    45    20    42 1   
    46    22    43 1   
@<TRIPOS>SUBSTRUCTURE
     1 9KB         1 TEMP              0 ****  ****    0 ROOT
