@<TRIPOS>MOLECULE
9KD
   58    61     1     0     0
SMALL
No Charge or Current Charge


@<TRIPOS>ATOM
      1 C1           2.5480     2.0140    -3.3100 ca         1 9KD      -0.157000
      2 C2           2.1610     1.7870    -1.9700 ca         1 9KD       0.110100
      3 C4          -0.1860     1.9840    -2.6260 ca         1 9KD      -0.134000
      4 O5          -3.8130     3.8510     0.6070 o          1 9KD      -0.577100
      5 C7           4.4590     1.2200    -1.2470 c3         1 9KD       0.140600
      6 C9           4.9370    -1.6760     0.4810 c          1 9KD       0.612000
      7 C11          2.7300    -1.2560     2.1400 cc         1 9KD      -0.387200
      8 C13         -0.7190     0.8400     0.0000 ca         1 9KD       0.117100
      9 C14         -0.7850    -0.5660    -0.1320 ca         1 9KD      -0.090300
     10 C15         -1.9990    -1.2270     0.2000 ca         1 9KD      -0.014000
     11 C16         -3.1120    -0.4780     0.6760 ca         1 9KD      -0.044000
     12 C17         -3.0200     0.9310     0.8130 ca         1 9KD      -0.018000
     13 C19         -2.1240    -2.6320     0.0610 ca         1 9KD      -0.046000
     14 C21         -4.4140    -2.5480     0.8620 ca         1 9KD      -0.077000
     15 C22         -4.3120    -1.1560     1.0020 ca         1 9KD      -0.102000
     16 C24          0.4420    -1.3560    -0.6120 c3         1 9KD      -0.051800
     17 C25         -4.4570     3.0190     1.2350 c          1 9KD       0.607300
     18 C26         -5.7160     3.3750     1.9590 ce         1 9KD      -0.308200
     19 C27         -6.3110     4.5930     1.9070 c2         1 9KD      -0.221000
     20 C3           0.7900     1.7720    -1.6310 ca         1 9KD       0.102100
     21 C5           0.2060     2.2120    -3.9560 ca         1 9KD      -0.107000
     22 C6           1.5690     2.2280    -4.2970 ca         1 9KD      -0.101000
     23 O1           0.4240     1.5330    -0.3210 os         1 9KD      -0.245200
     24 O2           3.0860     1.5500    -0.9720 os         1 9KD      -0.352100
     25 C8           5.1160     0.7860     0.0810 c3         1 9KD       0.102000
     26 N1           4.4450    -0.3760     0.7250 n          1 9KD      -0.308000
     27 N2           4.2780    -2.6940     1.0980 ns         1 9KD      -0.472500
     28 C10          3.2010    -2.6190     1.9200 c          1 9KD       0.590200
     29 C12          3.3420    -0.1730     1.5530 cd         1 9KD       0.027600
     30 C18         -1.8130     1.5700     0.4780 ca         1 9KD      -0.115000
     31 C20         -3.3220    -3.2890     0.3910 ca         1 9KD      -0.010000
     32 O4           2.6910    -3.6070     2.4150 o          1 9KD      -0.529000
     33 N3          -4.1320     1.6720     1.3100 ns         1 9KD      -0.161000
     34 N4          -3.5050    -5.8740     0.1170 n1         1 9KD      -0.449000
     35 H1           3.5950     2.0330    -3.5980 ha         1 9KD       0.120000
     36 H2          -1.2430     1.9770    -2.3730 ha         1 9KD       0.135000
     37 H3           4.5230     0.3900    -1.9630 h1         1 9KD       0.054200
     38 H4           4.9950     2.0830    -1.6600 h1         1 9KD       0.054200
     39 H5           1.8660    -1.1520     2.7860 ha         1 9KD       0.225000
     40 H6          -1.2990    -3.2330    -0.3100 ha         1 9KD       0.131000
     41 H7          -5.3470    -3.0470     1.1190 ha         1 9KD       0.127000
     42 H8          -5.1860    -0.6200     1.3630 ha         1 9KD       0.114000
     43 H9           0.6750    -2.1810     0.0700 hc         1 9KD       0.051367
     44 H10          0.2720    -1.7760    -1.6100 hc         1 9KD       0.051367
     45 H11          1.3520    -0.7500    -0.6660 hc         1 9KD       0.051367
     46 H12         -6.1760     2.5700     2.5320 ha         1 9KD       0.178000
     47 H13         -7.2400     4.8020     2.4420 ha         1 9KD       0.179000
     48 H14         -5.8910     5.4200     1.3320 ha         1 9KD       0.179000
     49 H15         -0.5470     2.3780    -4.7240 ha         1 9KD       0.120000
     50 H16          1.8680     2.4050    -5.3280 ha         1 9KD       0.118000
     51 H17          6.1730     0.5540    -0.1040 h1         1 9KD       0.078200
     52 H18          5.0990     1.6360     0.7750 h1         1 9KD       0.078200
     53 H19          4.6330    -3.6190     0.9200 hn         1 9KD       0.340500
     54 H20          3.0320     0.8640     1.6650 h4         1 9KD       0.218000
     55 H21         -1.6950     2.6430     0.5910 ha         1 9KD       0.151000
     56 H22         -4.7980     1.1160     1.8270 hn         1 9KD       0.158000
     57 C23         -3.4280    -4.7150     0.2430 cg         1 9KD       0.323000
     58 O3           5.8930    -1.9070    -0.2410 o          1 9KD      -0.565000
@<TRIPOS>BOND
     1     1     2 ar  
     2     1    22 ar  
     3     1    35 1   
     4     2    20 ar  
     5     2    24 1   
     6     3    20 ar  
     7     3    21 ar  
     8     3    36 1   
     9     4    17 2   
    10     5    24 1   
    11     5    25 1   
    12     5    37 1   
    13     5    38 1   
    14     6    26 1   
    15     6    27 1   
    16     6    58 2   
    17     7    28 1   
    18     7    29 2   
    19     7    39 1   
    20     8     9 ar  
    21     8    23 1   
    22     8    30 ar  
    23     9    10 ar  
    24     9    16 1   
    25    10    11 ar  
    26    10    13 ar  
    27    11    12 ar  
    28    11    15 ar  
    29    12    30 ar  
    30    12    33 1   
    31    13    31 ar  
    32    13    40 1   
    33    14    15 ar  
    34    14    31 ar  
    35    14    41 1   
    36    15    42 1   
    37    16    43 1   
    38    16    44 1   
    39    16    45 1   
    40    17    18 1   
    41    17    33 1   
    42    18    19 2   
    43    18    46 1   
    44    19    47 1   
    45    19    48 1   
    46    20    23 1   
    47    21    22 ar  
    48    21    49 1   
    49    22    50 1   
    50    25    26 1   
    51    25    51 1   
    52    25    52 1   
    53    26    29 1   
    54    27    28 1   
    55    27    53 1   
    56    28    32 2   
    57    29    54 1   
    58    30    55 1   
    59    31    57 1   
    60    33    56 1   
    61    34    57 3   
@<TRIPOS>SUBSTRUCTURE
     1 9KD         1 TEMP              0 ****  ****    0 ROOT
