@<TRIPOS>MOLECULE
9KD
   58    61     1     0     0
SMALL
abcg2


@<TRIPOS>ATOM
      1 C1           2.7120     1.9170    -3.3790 ca         1 9KD      -0.157000
      2 C2           2.2740     1.7940    -2.0690 ca         1 9KD       0.110100
      3 C4          -0.0050     1.6300    -2.8520 ca         1 9KD      -0.134000
      4 O5          -3.7630     3.4100     0.5670 o          1 9KD      -0.577100
      5 C7           4.3860     1.2690    -1.0890 c3         1 9KD       0.140600
      6 C9           4.0820    -1.4460     0.6220 c          1 9KD       0.612000
      7 C11          1.8760    -0.5280     2.1070 cc         1 9KD      -0.387200
      8 C13         -0.5330     0.7770    -0.1560 ca         1 9KD       0.117100
      9 C14         -0.5930    -0.5720    -0.4080 ca         1 9KD      -0.090300
     10 C15         -1.7690    -1.2540     0.0150 ca         1 9KD      -0.014000
     11 C16         -2.8130    -0.5730     0.7000 ca         1 9KD      -0.044000
     12 C17         -2.6520     0.8100     0.9910 ca         1 9KD      -0.018000
     13 C19         -1.9360    -2.6310    -0.2500 ca         1 9KD      -0.046000
     14 C21         -4.1210    -2.6120     0.7990 ca         1 9KD      -0.077000
     15 C22         -3.9820    -1.2820     1.0670 ca         1 9KD      -0.102000
     16 C24          0.5190    -1.3060    -1.0940 c3         1 9KD      -0.051800
     17 C25         -4.1380     2.7080     1.4890 c          1 9KD       0.607300
     18 C26         -5.1890     3.1200     2.4520 ce         1 9KD      -0.308200
     19 C27         -5.7490     4.3230     2.3930 c2         1 9KD      -0.221000
     20 C3           0.9060     1.6440    -1.8120 ca         1 9KD       0.102100
     21 C5           0.4430     1.7510    -4.1640 ca         1 9KD      -0.107000
     22 C6           1.7960     1.8920    -4.4260 ca         1 9KD      -0.101000
     23 O1           0.5560     1.5280    -0.4980 os         1 9KD      -0.245200
     24 O2           3.0810     1.8080    -0.9890 os         1 9KD      -0.352100
     25 C8           4.7980     0.8680     0.3120 c3         1 9KD       0.102000
     26 N1           3.8830    -0.1090     0.8900 n          1 9KD      -0.308000
     27 N2           3.1410    -2.2840     1.1590 ns         1 9KD      -0.472500
     28 C10          2.0130    -1.9450     1.8960 c          1 9KD       0.590200
     29 C12          2.7970     0.3100     1.6020 cd         1 9KD       0.027600
     30 C18         -1.5350     1.4640     0.5500 ca         1 9KD      -0.115000
     31 C20         -3.0780    -3.2920     0.1360 ca         1 9KD      -0.010000
     32 O4           1.2540    -2.8100     2.2920 o          1 9KD      -0.529000
     33 N3          -3.6400     1.4650     1.7360 ns         1 9KD      -0.161000
     34 N4          -3.3330    -5.8060    -0.3800 n1         1 9KD      -0.449000
     35 H1           3.7680     2.0340    -3.5910 ha         1 9KD       0.120000
     36 H2          -1.0620     1.5120    -2.6500 ha         1 9KD       0.135000
     37 H3           4.4000     0.4030    -1.7590 h1         1 9KD       0.054200
     38 H4           5.0970     2.0060    -1.4750 h1         1 9KD       0.054200
     39 H5           1.0340    -0.1470     2.6630 ha         1 9KD       0.225000
     40 H6          -1.1680    -3.1790    -0.7750 ha         1 9KD       0.131000
     41 H7          -5.0210    -3.1390     1.0830 ha         1 9KD       0.127000
     42 H8          -4.7980    -0.7670     1.5550 ha         1 9KD       0.114000
     43 H9           0.7050    -2.2730    -0.6290 hc         1 9KD       0.051367
     44 H10          0.2890    -1.4900    -2.1450 hc         1 9KD       0.051367
     45 H11          1.4550    -0.7540    -1.0560 hc         1 9KD       0.051367
     46 H12         -5.4940     2.4110     3.2130 ha         1 9KD       0.178000
     47 H13         -6.5150     4.6160     3.0970 ha         1 9KD       0.179000
     48 H14         -5.4610     5.0510     1.6450 ha         1 9KD       0.179000
     49 H15         -0.2730     1.7340    -4.9740 ha         1 9KD       0.120000
     50 H16          2.1480     1.9860    -5.4440 ha         1 9KD       0.118000
     51 H17          5.8060     0.4580     0.2940 h1         1 9KD       0.078200
     52 H18          4.8140     1.7370     0.9680 h1         1 9KD       0.078200
     53 H19          3.2850    -3.2690     0.9720 hn         1 9KD       0.340500
     54 H20          2.7240     1.3770     1.7520 h4         1 9KD       0.218000
     55 H21         -1.3830     2.5130     0.7640 ha         1 9KD       0.151000
     56 H22         -4.0300     0.9600     2.5180 hn         1 9KD       0.158000
     57 C23         -3.2150    -4.6830    -0.1520 cg         1 9KD       0.323000
     58 O3           5.0160    -1.8530    -0.0380 o          1 9KD      -0.565000
@<TRIPOS>BOND
     1     1     2 ar  
     2     1    22 ar  
     3     1    35 1   
     4     2    20 ar  
     5     2    24 1   
     6     3    20 ar  
     7     3    21 ar  
     8     3    36 1   
     9     4    17 2   
    10     5    24 1   
    11     5    25 1   
    12     5    37 1   
    13     5    38 1   
    14     6    26 1   
    15     6    27 1   
    16     6    58 2   
    17     7    28 1   
    18     7    29 2   
    19     7    39 1   
    20     8     9 ar  
    21     8    23 1   
    22     8    30 ar  
    23     9    10 ar  
    24     9    16 1   
    25    10    11 ar  
    26    10    13 ar  
    27    11    12 ar  
    28    11    15 ar  
    29    12    30 ar  
    30    12    33 1   
    31    13    31 ar  
    32    13    40 1   
    33    14    15 ar  
    34    14    31 ar  
    35    14    41 1   
    36    15    42 1   
    37    16    43 1   
    38    16    44 1   
    39    16    45 1   
    40    17    18 1   
    41    17    33 1   
    42    18    19 2   
    43    18    46 1   
    44    19    47 1   
    45    19    48 1   
    46    20    23 1   
    47    21    22 ar  
    48    21    49 1   
    49    22    50 1   
    50    25    26 1   
    51    25    51 1   
    52    25    52 1   
    53    26    29 1   
    54    27    28 1   
    55    27    53 1   
    56    28    32 2   
    57    29    54 1   
    58    30    55 1   
    59    31    57 1   
    60    33    56 1   
    61    34    57 3   
@<TRIPOS>SUBSTRUCTURE
     1 9KD         1 TEMP              0 ****  ****    0 ROOT
