@<TRIPOS>MOLECULE
9KE
   44    46     1     0     0
SMALL
bcc


@<TRIPOS>ATOM
      1 C10          7.9840    -0.0020    -0.6570 cc         1 9KE       0.296200
      2 C13          0.2260     1.0170     1.2240 c6         1 9KE       0.147800
      3 C17         -3.5160     0.7740    -0.9140 ca         1 9KE      -0.110300
      4 C20         -5.8000    -0.1850     0.3430 ca         1 9KE       0.032400
      5 C22         -4.8760    -1.0830    -0.1740 ca         1 9KE      -0.124500
      6 C02         -0.2560    -0.0450    -1.3080 c          1 9KE       0.712500
      7 C03          1.0210    -0.3210    -0.5410 c6         1 9KE       0.075800
      8 N04          1.3840     0.6940     0.4210 n3         1 9KE      -0.710600
      9 C05          2.5250     0.3100     1.2300 c3         1 9KE       0.171800
     10 C06          3.8010     0.1370     0.4190 c3         1 9KE      -0.103400
     11 C07          5.0030    -0.0190     1.3410 c3         1 9KE       0.043300
     12 N08          6.2320    -0.2480     0.6090 na         1 9KE      -0.190900
     13 C09          6.9500     0.6840    -0.0860 cd         1 9KE      -0.266600
     14 N11          7.9100    -1.3260    -0.3310 nc         1 9KE      -0.670000
     15 C12          6.8460    -1.4350     0.4250 cd         1 9KE       0.386400
     16 C14         -0.8040     1.6920     0.3500 c6         1 9KE       0.110000
     17 N15         -1.0650     0.9270    -0.8570 n          1 9KE      -0.468800
     18 C16         -2.2690     1.2900    -1.5830 c3         1 9KE       0.141300
     19 C18         -4.4580     1.6500    -0.3880 ca         1 9KE      -0.108000
     20 C19         -5.6040     1.1810     0.2410 ca         1 9KE      -0.124500
     21 CL1         -7.2250    -0.7900     1.1270 cl         1 9KE      -0.112400
     22 C23         -3.7400    -0.5970    -0.7990 ca         1 9KE      -0.108000
     23 H1           8.7750     0.3910    -1.2780 h4         1 9KE       0.038100
     24 H2          -0.2080     0.1260     1.7080 h1         1 9KE       0.045200
     25 H3           0.5100     1.7070     2.0190 h1         1 9KE       0.045200
     26 H4          -5.0420    -2.1490    -0.0920 ha         1 9KE       0.148500
     27 H5           0.8930    -1.3130    -0.0710 h1         1 9KE       0.067200
     28 H6           1.8040    -0.4330    -1.2920 h1         1 9KE       0.067200
     29 H8           2.6790     1.1030     1.9680 h1         1 9KE       0.033700
     30 H9           2.3280    -0.6140     1.8020 h1         1 9KE       0.033700
     31 H10          3.7420    -0.7440    -0.2260 hc         1 9KE       0.065200
     32 H11          3.9390     1.0060    -0.2290 hc         1 9KE       0.065200
     33 H12          5.1280     0.8690     1.9620 h1         1 9KE       0.058700
     34 H13          4.8600    -0.8640     2.0160 h1         1 9KE       0.058700
     35 H14          6.6730     1.7250    -0.1080 h4         1 9KE       0.174000
     36 H15          6.4750    -2.3450     0.8720 h5         1 9KE       0.051100
     37 H16         -1.7390     1.7940     0.9050 h1         1 9KE       0.051700
     38 H17         -0.4700     2.6980     0.0800 h1         1 9KE       0.051700
     39 H18         -2.1950     0.9090    -2.6000 h1         1 9KE       0.069200
     40 H19         -2.3090     2.3800    -1.6520 h1         1 9KE       0.069200
     41 H20         -4.3020     2.7190    -0.4660 ha         1 9KE       0.142000
     42 H21         -6.3290     1.8750     0.6460 ha         1 9KE       0.148500
     43 H22         -3.0240    -1.2980    -1.2090 ha         1 9KE       0.142000
     44 O01         -0.5110    -0.7250    -2.2960 o          1 9KE      -0.647500
@<TRIPOS>BOND
     1     1    13 2   
     2     1    14 1   
     3     1    23 1   
     4     2     8 1   
     5     2    16 1   
     6     2    24 1   
     7     2    25 1   
     8     3    18 1   
     9     3    19 ar  
    10     3    22 ar  
    11     4     5 ar  
    12     4    20 ar  
    13     4    21 1   
    14     5    22 ar  
    15     5    26 1   
    16     6     7 1   
    17     6    17 1   
    18     6    44 2   
    19     7     8 1   
    20     7    27 1   
    21     7    28 1   
    22     8     9 1   
    23     9    10 1   
    24     9    29 1   
    25     9    30 1   
    26    10    11 1   
    27    10    31 1   
    28    10    32 1   
    29    11    12 1   
    30    11    33 1   
    31    11    34 1   
    32    12    13 1   
    33    12    15 1   
    34    13    35 1   
    35    14    15 2   
    36    15    36 1   
    37    16    17 1   
    38    16    37 1   
    39    16    38 1   
    40    17    18 1   
    41    18    39 1   
    42    18    40 1   
    43    19    20 ar  
    44    19    41 1   
    45    20    42 1   
    46    22    43 1   
@<TRIPOS>SUBSTRUCTURE
     1 9KE         1 TEMP              0 ****  ****    0 ROOT
