@<TRIPOS>MOLECULE
9KE
   44    46     1     0     0
SMALL
No Charge or Current Charge


@<TRIPOS>ATOM
      1 C10          8.1720    -0.3070    -0.5090 cc         1 9KE       0.230900
      2 C13          0.3050     1.4710     1.1160 c6         1 9KE       0.147800
      3 C17         -3.6550     0.6750    -0.9270 ca         1 9KE      -0.110300
      4 C20         -5.8480    -0.5290     0.3690 ca         1 9KE       0.124000
      5 C22         -5.0510    -1.2830    -0.5070 ca         1 9KE      -0.106500
      6 C02         -0.3340     0.0170    -1.3240 c          1 9KE       0.570000
      7 C03          0.9730    -0.2190    -0.5080 c6         1 9KE       0.075800
      8 N04          1.4520     0.9230     0.3460 n3         1 9KE      -0.710600
      9 C05          2.6050     0.5820     1.2140 c3         1 9KE       0.171800
     10 C06          3.8850     0.1940     0.4440 c3         1 9KE      -0.103400
     11 C07          5.0960    -0.0070     1.3760 c3         1 9KE       0.072600
     12 N08          6.3190    -0.3760     0.6470 na         1 9KE      -0.169500
     13 C09          7.2040     0.4930     0.0320 cd         1 9KE      -0.234000
     14 N11          7.9240    -1.6280    -0.2570 nc         1 9KE      -0.670000
     15 C12          6.7970    -1.6630     0.4450 cd         1 9KE       0.386400
     16 C14         -0.8190     1.9980     0.1850 c6         1 9KE       0.110000
     17 N15         -1.1860     1.0720    -0.9210 n          1 9KE      -0.401800
     18 C16         -2.4640     1.3230    -1.6220 c3         1 9KE       0.141300
     19 C18         -4.4600     1.4270    -0.0460 ca         1 9KE      -0.090000
     20 C19         -5.5540     0.8250     0.6000 ca         1 9KE      -0.106500
     21 Cl1         -7.2160    -1.2810     1.1790 cl         1 9KE      -0.204000
     22 C23         -3.9560    -0.6820    -1.1540 ca         1 9KE      -0.090000
     23 H1           9.0460    -0.0120    -1.0750 h4         1 9KE       0.038100
     24 H2          -0.1150     0.6930     1.7720 h1         1 9KE       0.045200
     25 H3           0.6320     2.2960     1.7660 h1         1 9KE       0.045200
     26 H4          -5.2800    -2.3300    -0.6830 ha         1 9KE       0.130500
     27 H5           0.7710    -1.1000     0.1180 h1         1 9KE       0.067200
     28 H6           1.7400    -0.5040    -1.2410 h1         1 9KE       0.067200
     29 H8           2.8470     1.4500     1.8430 h1         1 9KE       0.033700
     30 H9           2.3360    -0.2400     1.8910 h1         1 9KE       0.033700
     31 H10          3.7150    -0.7320    -0.1170 hc         1 9KE       0.065200
     32 H11          4.1170     0.9790    -0.2850 hc         1 9KE       0.065200
     33 H12          5.2880     0.9200     1.9310 h1         1 9KE       0.058700
     34 H13          4.8700    -0.7950     2.1060 h1         1 9KE       0.058700
     35 H14          7.0880     1.5700     0.0220 h4         1 9KE       0.156000
     36 H15          6.2880    -2.5410     0.8250 h5         1 9KE       0.051100
     37 H16         -1.7090     2.2200     0.7910 h1         1 9KE       0.051700
     38 H17         -0.4850     2.9450    -0.2610 h1         1 9KE       0.051700
     39 H18         -2.4060     0.9600    -2.6570 h1         1 9KE       0.069200
     40 H19         -2.6270     2.4070    -1.6840 h1         1 9KE       0.069200
     41 H20         -4.2370     2.4760     0.1390 ha         1 9KE       0.124000
     42 H21         -6.1730     1.4060     1.2790 ha         1 9KE       0.130500
     43 H22         -3.3420    -1.2730    -1.8300 ha         1 9KE       0.124000
     44 O01         -0.6090    -0.7010    -2.2790 o          1 9KE      -0.572000
@<TRIPOS>BOND
     1     1    13 2   
     2     1    14 1   
     3     1    23 1   
     4     2     8 1   
     5     2    16 1   
     6     2    24 1   
     7     2    25 1   
     8     3    18 1   
     9     3    19 ar  
    10     3    22 ar  
    11     4     5 ar  
    12     4    20 ar  
    13     4    21 1   
    14     5    22 ar  
    15     5    26 1   
    16     6     7 1   
    17     6    17 1   
    18     6    44 2   
    19     7     8 1   
    20     7    27 1   
    21     7    28 1   
    22     8     9 1   
    23     9    10 1   
    24     9    29 1   
    25     9    30 1   
    26    10    11 1   
    27    10    31 1   
    28    10    32 1   
    29    11    12 1   
    30    11    33 1   
    31    11    34 1   
    32    12    13 1   
    33    12    15 1   
    34    13    35 1   
    35    14    15 2   
    36    15    36 1   
    37    16    17 1   
    38    16    37 1   
    39    16    38 1   
    40    17    18 1   
    41    18    39 1   
    42    18    40 1   
    43    19    20 ar  
    44    19    41 1   
    45    20    42 1   
    46    22    43 1   
@<TRIPOS>SUBSTRUCTURE
     1 9KE         1 TEMP              0 ****  ****    0 ROOT
