@<TRIPOS>MOLECULE
9KF
   39    40     1     0     0
SMALL
bcc


@<TRIPOS>ATOM
      1 CAA          5.5880     2.5930    -0.0100 c3         1 9KF      -0.097100
      2 CAB          2.9890    -1.1180    -2.0390 c3         1 9KF      -0.081100
      3 CAE         -3.7060     3.1100     0.5220 ca         1 9KF      -0.105000
      4 CAF         -2.6440     2.5010     1.1770 ca         1 9KF      -0.142000
      5 CAG         -4.4630     2.3900    -0.3960 ca         1 9KF      -0.142000
      6 CAH          0.0840    -3.2920     0.3680 ca         1 9KF      -0.141000
      7 CAI         -2.3270     1.1780     0.9040 ca         1 9KF      -0.083500
      8 CAJ         -4.1630     1.0620    -0.6510 ca         1 9KF      -0.083500
      9 CAK         -1.2080    -2.7960     0.2960 ca         1 9KF      -0.071000
     10 CAL          1.1560    -2.5150    -0.0460 ca         1 9KF      -0.076000
     11 CAM         -0.3400    -0.7270    -0.5760 ca         1 9KF      -0.082000
     12 CAN          4.6890     1.6170     0.7090 c3         1 9KF       0.143400
     13 CAP          2.9360     0.1270     0.1370 c          1 9KF       0.641100
     14 CAR         -3.0840     0.4490    -0.0130 ca         1 9KF      -0.171600
     15 CAS         -1.4250    -1.5000    -0.1620 ca         1 9KF      -0.169600
     16 CAT          0.9550    -1.2270    -0.5360 ca         1 9KF      -0.089300
     17 CAU          2.1020    -0.3820    -1.0260 c3         1 9KF      -0.070400
     18 OAC          2.8420    -0.2530     1.2770 o          1 9KF      -0.530000
     19 OAD         -3.7290    -1.7470    -0.5470 o          1 9KF      -0.518100
     20 OAO          3.8000     1.0450    -0.2650 os         1 9KF      -0.428900
     21 H1           5.0160     3.3890    -0.4870 hc         1 9KF       0.046700
     22 H2           6.2640     3.0540     0.7090 hc         1 9KF       0.046700
     23 H3           6.1960     2.0960    -0.7670 hc         1 9KF       0.046700
     24 H4           3.7290    -0.4490    -2.4730 hc         1 9KF       0.046367
     25 H5           3.5180    -1.9570    -1.5860 hc         1 9KF       0.046367
     26 H6           2.3740    -1.5070    -2.8500 hc         1 9KF       0.046367
     27 H8          -2.0620     3.0550     1.9010 ha         1 9KF       0.135000
     28 H9          -5.2900     2.8640    -0.9070 ha         1 9KF       0.135000
     29 H10          0.2590    -4.2900     0.7460 ha         1 9KF       0.137000
     30 H11         -1.5030     0.7110     1.4280 ha         1 9KF       0.145000
     31 H12         -4.7590     0.5010    -1.3590 ha         1 9KF       0.145000
     32 H13         -2.0420    -3.4090     0.6130 ha         1 9KF       0.148000
     33 H14          2.1560    -2.9260     0.0110 ha         1 9KF       0.136000
     34 H15         -0.5070     0.2730    -0.9580 ha         1 9KF       0.136000
     35 H16          5.2720     0.8260     1.1850 h1         1 9KF       0.048200
     36 H17          4.1070     2.1190     1.4840 h1         1 9KF       0.048200
     37 H19          1.6910     0.4990    -1.5290 hc         1 9KF       0.078700
     38 CAQ         -2.8190    -0.9920    -0.2660 c          1 9KF       0.594300
     39 H7          -3.9460     4.1450     0.7280 ha         1 9KF       0.132000
@<TRIPOS>BOND
     1     1    12 1   
     2     1    21 1   
     3     1    22 1   
     4     1    23 1   
     5     2    17 1   
     6     2    24 1   
     7     2    25 1   
     8     2    26 1   
     9     3     4 ar  
    10     3     5 ar  
    11     3    39 1   
    12     4     7 ar  
    13     4    27 1   
    14     5     8 ar  
    15     5    28 1   
    16     6     9 ar  
    17     6    10 ar  
    18     6    29 1   
    19     7    14 ar  
    20     7    30 1   
    21     8    14 ar  
    22     8    31 1   
    23     9    15 ar  
    24     9    32 1   
    25    10    16 ar  
    26    10    33 1   
    27    11    15 ar  
    28    11    16 ar  
    29    11    34 1   
    30    12    20 1   
    31    12    35 1   
    32    12    36 1   
    33    13    17 1   
    34    13    18 2   
    35    13    20 1   
    36    14    38 1   
    37    15    38 1   
    38    16    17 1   
    39    17    37 1   
    40    19    38 2   
@<TRIPOS>SUBSTRUCTURE
     1 9KF         1 TEMP              0 ****  ****    0 ROOT
