@<TRIPOS>MOLECULE
9KF
   39    40     1     0     0
SMALL
No Charge or Current Charge


@<TRIPOS>ATOM
      1 CAA          2.5330     3.4080    -0.1670 c3         1 9KF      -0.097100
      2 CAB          3.5680    -2.2770    -1.5190 c3         1 9KF      -0.081100
      3 CAE         -1.8790     3.6140     0.7230 ca         1 9KF      -0.087000
      4 CAF         -1.0260     2.6520     1.2880 ca         1 9KF      -0.124000
      5 CAG         -2.9250     3.2090    -0.1220 ca         1 9KF      -0.124000
      6 CAH         -0.2800    -3.7210     0.0550 ca         1 9KF      -0.123000
      7 CAI         -1.2120     1.2890     1.0040 ca         1 9KF      -0.065500
      8 CAJ         -3.1140     1.8460    -0.4100 ca         1 9KF      -0.065500
      9 CAK         -1.3970    -2.8700     0.1050 ca         1 9KF      -0.053000
     10 CAL          0.9720    -3.2290    -0.3490 ca         1 9KF      -0.058000
     11 CAM         -0.0150    -1.0340    -0.6830 ca         1 9KF      -0.064000
     12 CAN          2.9510     2.0800     0.4830 c3         1 9KF       0.166600
     13 CAP          2.9310    -0.2610    -0.0890 c          1 9KF       0.592100
     14 CAR         -2.2500     0.8720     0.1380 ca         1 9KF      -0.171600
     15 CAS         -1.2690    -1.5110    -0.2460 ca         1 9KF      -0.169600
     16 CAT          1.1140    -1.8760    -0.7280 ca         1 9KF      -0.089300
     17 CAU          2.4530    -1.2610    -1.1610 c3         1 9KF      -0.070400
     18 OAC          3.3010    -0.5890     1.0310 o          1 9KF      -0.481000
     19 OAD         -3.5960    -1.0260    -0.3770 o          1 9KF      -0.518100
     20 OAO          2.6850     1.0360    -0.4660 os         1 9KF      -0.452100
     21 H1           1.4680     3.3920    -0.4270 hc         1 9KF       0.046700
     22 H2           2.7050     4.2400     0.5250 hc         1 9KF       0.046700
     23 H3           3.1140     3.5910    -1.0790 hc         1 9KF       0.046700
     24 H4           4.4500    -1.7530    -1.9080 hc         1 9KF       0.046367
     25 H5           3.8810    -2.8510    -0.6390 hc         1 9KF       0.046367
     26 H6           3.2230    -2.9760    -2.2900 hc         1 9KF       0.046367
     27 H8          -0.2230     2.9630     1.9520 ha         1 9KF       0.117000
     28 H9          -3.5910     3.9520    -0.5560 ha         1 9KF       0.117000
     29 H10         -0.3840    -4.7660     0.3400 ha         1 9KF       0.119000
     30 H11         -0.5510     0.5590     1.4670 ha         1 9KF       0.127000
     31 H12         -3.9280     1.5480    -1.0680 ha         1 9KF       0.127000
     32 H13         -2.3570    -3.2660     0.4310 ha         1 9KF       0.130000
     33 H14          1.8190    -3.9090    -0.3610 ha         1 9KF       0.118000
     34 H15          0.0900     0.0040    -0.9920 ha         1 9KF       0.118000
     35 H16          4.0170     2.1140     0.7430 h1         1 9KF       0.048200
     36 H17          2.3710     1.9290     1.4040 h1         1 9KF       0.048200
     37 H19          2.2620    -0.6810    -2.0720 hc         1 9KF       0.078700
     38 CAQ         -2.4670    -0.5920    -0.1780 c          1 9KF       0.594300
     39 H7          -1.7340     4.6690     0.9450 ha         1 9KF       0.114000
@<TRIPOS>BOND
     1     1    12 1   
     2     1    21 1   
     3     1    22 1   
     4     1    23 1   
     5     2    17 1   
     6     2    24 1   
     7     2    25 1   
     8     2    26 1   
     9     3     4 ar  
    10     3     5 ar  
    11     3    39 1   
    12     4     7 ar  
    13     4    27 1   
    14     5     8 ar  
    15     5    28 1   
    16     6     9 ar  
    17     6    10 ar  
    18     6    29 1   
    19     7    14 ar  
    20     7    30 1   
    21     8    14 ar  
    22     8    31 1   
    23     9    15 ar  
    24     9    32 1   
    25    10    16 ar  
    26    10    33 1   
    27    11    15 ar  
    28    11    16 ar  
    29    11    34 1   
    30    12    20 1   
    31    12    35 1   
    32    12    36 1   
    33    13    17 1   
    34    13    18 2   
    35    13    20 1   
    36    14    38 1   
    37    15    38 1   
    38    16    17 1   
    39    17    37 1   
    40    19    38 2   
@<TRIPOS>SUBSTRUCTURE
     1 9KF         1 TEMP              0 ****  ****    0 ROOT
