@<TRIPOS>MOLECULE
9KG
   61    64     1     0     0
SMALL
No Charge or Current Charge


@<TRIPOS>ATOM
      1 N1          -1.9810    -0.6830    -1.6000 n          1 9KG      -0.300000
      2 C2          -1.8840     2.8550     1.0060 ca         1 9KG       0.107100
      3 N2          -1.4970    -2.9660    -1.9460 ns         1 9KG      -0.462500
      4 N3           2.5670     1.3050    -1.2550 n          1 9KG      -0.252400
      5 C4          -1.2470     3.7990     3.1720 ca         1 9KG      -0.081000
      6 N4           1.1500    -6.1800     0.0170 n1         1 9KG      -0.450000
      7 C6          -2.7660     5.0230     1.7200 ca         1 9KG      -0.080000
      8 C7          -2.4210     1.8740    -1.2160 c3         1 9KG       0.145600
      9 C9          -1.3340    -1.6830    -2.3620 c          1 9KG       0.621000
     10 C1          -2.6900     3.9930     0.7670 ca         1 9KG      -0.186000
     11 C10         -2.2090    -3.4180    -0.8850 c          1 9KG       0.590200
     12 C11         -2.8670    -2.3570    -0.1330 cc         1 9KG      -0.381200
     13 C12         -2.7540    -1.0320    -0.4880 cd         1 9KG       0.013600
     14 C13          0.2610     0.8550     1.6450 ca         1 9KG       0.145100
     15 C14          0.1170    -0.5480     1.7280 ca         1 9KG      -0.087300
     16 C15          0.7760    -1.3620     0.7680 ca         1 9KG      -0.015000
     17 C16          1.5400    -0.7640    -0.2700 ca         1 9KG      -0.033000
     18 C17          1.6450     0.6500    -0.3590 ca         1 9KG      -0.007000
     19 C18          1.0550     1.4340     0.6460 ca         1 9KG      -0.144000
     20 C19          0.6830    -2.7750     0.8280 ca         1 9KG      -0.063000
     21 C20          1.3180    -3.5840    -0.1300 ca         1 9KG      -0.013000
     22 C21          2.0420    -2.9870    -1.1720 ca         1 9KG      -0.098000
     23 C22          2.1470    -1.5910    -1.2440 ca         1 9KG      -0.070000
     24 C23          1.2180    -5.0160    -0.0490 cg         1 9KG       0.324000
     25 C24         -0.7400    -1.1660     2.8410 c3         1 9KG      -0.040800
     26 C25          3.9680     1.0550    -1.2280 c          1 9KG       0.605300
     27 C26          4.8620     1.7920    -2.1860 ce         1 9KG      -0.297200
     28 C27          2.0520     2.4630    -2.0200 c3         1 9KG       0.097300
     29 C28          6.1850     2.0060    -1.9730 c2         1 9KG      -0.233000
     30 C3          -1.1510     2.7640     2.2240 ca         1 9KG       0.082100
     31 C5          -2.0470     4.9260     2.9200 ca         1 9KG      -0.126000
     32 C8          -1.8190     0.7290    -2.0670 c3         1 9KG       0.100000
     33 O1          -0.3660     1.6720     2.5620 os         1 9KG      -0.245200
     34 O2          -1.7980     1.8350     0.0780 os         1 9KG      -0.336100
     35 O3          -0.6650    -1.4380    -3.3530 o          1 9KG      -0.570000
     36 O4          -2.2810    -4.6010    -0.6060 o          1 9KG      -0.523000
     37 O5           4.4600     0.3060    -0.3920 o          1 9KG      -0.581100
     38 H1          -1.0340    -3.6680    -2.4990 hn         1 9KG       0.345500
     39 H2          -0.6980     3.7240     4.1070 ha         1 9KG       0.137000
     40 H3          -3.3880     5.8950     1.5290 ha         1 9KG       0.118000
     41 H4          -2.2010     2.8230    -1.7210 h1         1 9KG       0.046200
     42 H5          -3.5100     1.7650    -1.1370 h1         1 9KG       0.046200
     43 H6          -3.2670     4.0940    -0.1470 ha         1 9KG       0.116000
     44 H7          -3.4530    -2.6780     0.7200 ha         1 9KG       0.223000
     45 H8          -3.2330    -0.2170     0.0450 h4         1 9KG       0.204000
     46 H9           1.1930     2.5110     0.6450 ha         1 9KG       0.130000
     47 H10          0.1180    -3.2650     1.6170 ha         1 9KG       0.135000
     48 H11          2.5240    -3.6020    -1.9300 ha         1 9KG       0.126000
     49 H12          2.6960    -1.1620    -2.0770 ha         1 9KG       0.125000
     50 H13         -1.5330    -1.7960     2.4230 hc         1 9KG       0.048700
     51 H14         -0.1280    -1.7880     3.5050 hc         1 9KG       0.048700
     52 H15         -1.2350    -0.4210     3.4720 hc         1 9KG       0.048700
     53 H16          4.3930     2.2300    -3.0640 ha         1 9KG       0.180000
     54 H17          2.1380     2.2660    -3.0960 h1         1 9KG       0.044033
     55 H18          0.9930     2.6360    -1.7880 h1         1 9KG       0.044033
     56 H19          2.6200     3.3670    -1.7630 h1         1 9KG       0.044033
     57 H20          6.7950     2.5760    -2.6770 ha         1 9KG       0.176500
     58 H21          6.7000     1.6200    -1.0920 ha         1 9KG       0.176500
     59 H22         -2.1110     5.7220     3.6590 ha         1 9KG       0.124000
     60 H23         -0.7450     0.9280    -2.1700 h1         1 9KG       0.076700
     61 H24         -2.2520     0.8010    -3.0730 h1         1 9KG       0.076700
@<TRIPOS>BOND
     1     1     9 1   
     2     1    13 1   
     3     1    32 1   
     4     2    10 ar  
     5     2    30 ar  
     6     2    34 1   
     7     3     9 1   
     8     3    11 1   
     9     3    38 1   
    10     4    18 1   
    11     4    26 1   
    12     4    28 1   
    13     5    30 ar  
    14     5    31 ar  
    15     5    39 1   
    16     6    24 3   
    17     7    10 ar  
    18     7    31 ar  
    19     7    40 1   
    20     8    32 1   
    21     8    34 1   
    22     8    41 1   
    23     8    42 1   
    24     9    35 2   
    25    10    43 1   
    26    11    12 1   
    27    11    36 2   
    28    12    13 2   
    29    12    44 1   
    30    13    45 1   
    31    14    15 ar  
    32    14    19 ar  
    33    14    33 1   
    34    15    16 ar  
    35    15    25 1   
    36    16    17 ar  
    37    16    20 ar  
    38    17    18 ar  
    39    17    23 ar  
    40    18    19 ar  
    41    19    46 1   
    42    20    21 ar  
    43    20    47 1   
    44    21    22 ar  
    45    21    24 1   
    46    22    23 ar  
    47    22    48 1   
    48    23    49 1   
    49    25    50 1   
    50    25    51 1   
    51    25    52 1   
    52    26    27 1   
    53    26    37 2   
    54    27    29 2   
    55    27    53 1   
    56    28    54 1   
    57    28    55 1   
    58    28    56 1   
    59    29    57 1   
    60    29    58 1   
    61    30    33 1   
    62    31    59 1   
    63    32    60 1   
    64    32    61 1   
@<TRIPOS>SUBSTRUCTURE
     1 9KG         1 TEMP              0 ****  ****    0 ROOT
