@<TRIPOS>MOLECULE
9KG
   61    64     1     0     0
SMALL
bcc


@<TRIPOS>ATOM
      1 N1          -2.3420    -0.4220    -1.6120 n          1 9KG      -0.367000
      2 C2          -1.8440     2.8590     0.8370 ca         1 9KG       0.107100
      3 N2          -1.3520    -2.5140    -1.5310 ns         1 9KG      -0.596500
      4 N3           2.5510     1.1880    -1.2130 n          1 9KG      -0.412000
      5 C4          -0.8930     3.5500     2.9530 ca         1 9KG      -0.099000
      6 N4           1.6260    -6.2600     0.0160 n1         1 9KG      -0.360800
      7 C6          -2.1090     5.1250     1.6200 ca         1 9KG      -0.098000
      8 C7          -2.7970     1.9970    -1.1740 c3         1 9KG       0.122400
      9 C9          -1.3590    -1.2640    -2.0880 c          1 9KG       0.830500
     10 C1          -2.3400     4.1450     0.6600 ca         1 9KG      -0.204000
     11 C10         -2.2120    -3.0310    -0.5750 c          1 9KG       0.732700
     12 C11         -3.2320    -2.0990    -0.1680 cc         1 9KG      -0.331200
     13 C12         -3.2480    -0.8620    -0.6950 cd         1 9KG       0.063600
     14 C13          0.0720     0.5810     1.4670 ca         1 9KG       0.145100
     15 C14          0.0820    -0.7860     1.6250 ca         1 9KG      -0.087300
     16 C15          0.9070    -1.5450     0.7480 ca         1 9KG      -0.015000
     17 C16          1.7140    -0.9050    -0.2330 ca         1 9KG      -0.033000
     18 C17          1.7220     0.5090    -0.2820 ca         1 9KG       0.085600
     19 C18          0.9130     1.2310     0.5450 ca         1 9KG      -0.162000
     20 C19          0.9250    -2.9560     0.7990 ca         1 9KG      -0.081000
     21 C20          1.6780    -3.6830    -0.0920 ca         1 9KG      -0.013000
     22 C21          2.4650    -3.0450    -1.0770 ca         1 9KG      -0.116000
     23 C22          2.4790    -1.6820    -1.1310 ca         1 9KG      -0.088000
     24 C23          1.6460    -5.1080    -0.0280 cg         1 9KG       0.234800
     25 C24         -0.7760    -1.4390     2.6690 c3         1 9KG      -0.040800
     26 C25          3.8400     1.4210    -0.8460 c          1 9KG       0.672300
     27 C26          4.6690     2.2440    -1.7660 ce         1 9KG      -0.247200
     28 C27          1.9200     1.6800    -2.4300 c3         1 9KG       0.097300
     29 C28          5.9760     2.3760    -1.5660 c2         1 9KG      -0.133000
     30 C3          -1.1280     2.5690     2.0080 ca         1 9KG       0.082100
     31 C5          -1.3840     4.8360     2.7630 ca         1 9KG      -0.144000
     32 C8          -2.4210     0.9250    -2.1740 c3         1 9KG       0.100000
     33 O1          -0.7410     1.2880     2.2940 os         1 9KG      -0.245200
     34 O2          -1.9740     1.8460    -0.0370 os         1 9KG      -0.312900
     35 O3          -0.5600    -0.9380    -2.9430 o          1 9KG      -0.645500
     36 O4          -2.0680    -4.1680    -0.1650 o          1 9KG      -0.598500
     37 O5           4.2900     0.9700     0.1960 o          1 9KG      -0.581100
     38 H1          -0.6240    -3.1300    -1.8710 hn         1 9KG       0.345500
     39 H2          -0.3370     3.2950     3.8460 ha         1 9KG       0.155000
     40 H3          -2.5080     6.1180     1.4620 ha         1 9KG       0.136000
     41 H4          -2.6320     2.9510    -1.6820 h1         1 9KG       0.046200
     42 H5          -3.8520     1.9620    -0.8850 h1         1 9KG       0.046200
     43 H6          -2.9180     4.4020    -0.2170 ha         1 9KG       0.134000
     44 H7          -3.9740    -2.3950     0.5570 ha         1 9KG       0.173000
     45 H8          -4.0110    -0.1560    -0.4050 h4         1 9KG       0.154000
     46 H9           0.9380     2.3130     0.4980 ha         1 9KG       0.148000
     47 H10          0.3290    -3.4830     1.5280 ha         1 9KG       0.153000
     48 H11          3.0430    -3.6350    -1.7750 ha         1 9KG       0.144000
     49 H12          3.0760    -1.1890    -1.8850 ha         1 9KG       0.143000
     50 H13         -1.7540    -1.7090     2.2640 hc         1 9KG       0.048700
     51 H14         -0.3210    -2.3480     3.0570 hc         1 9KG       0.048700
     52 H15         -0.9470    -0.7840     3.5190 hc         1 9KG       0.048700
     53 H16          4.2050     2.7530    -2.6000 ha         1 9KG       0.130000
     54 H17          2.5840     1.5910    -3.2860 h1         1 9KG       0.044033
     55 H18          1.0500     1.0640    -2.6390 h1         1 9KG       0.044033
     56 H19          1.5940     2.7170    -2.3360 h1         1 9KG       0.044033
     57 H20          6.5810     2.9820    -2.2270 ha         1 9KG       0.126500
     58 H21          6.4840     1.8880    -0.7450 ha         1 9KG       0.126500
     59 H22         -1.2010     5.5990     3.5070 ha         1 9KG       0.142000
     60 H23         -1.4460     1.1590    -2.5910 h1         1 9KG       0.076700
     61 H24         -3.1420     0.9480    -2.9930 h1         1 9KG       0.076700
@<TRIPOS>BOND
     1     1     9 1   
     2     1    13 1   
     3     1    32 1   
     4     2    10 ar  
     5     2    30 ar  
     6     2    34 1   
     7     3     9 1   
     8     3    11 1   
     9     3    38 1   
    10     4    18 1   
    11     4    26 1   
    12     4    28 1   
    13     5    30 ar  
    14     5    31 ar  
    15     5    39 1   
    16     6    24 3   
    17     7    10 ar  
    18     7    31 ar  
    19     7    40 1   
    20     8    32 1   
    21     8    34 1   
    22     8    41 1   
    23     8    42 1   
    24     9    35 2   
    25    10    43 1   
    26    11    12 1   
    27    11    36 2   
    28    12    13 2   
    29    12    44 1   
    30    13    45 1   
    31    14    15 ar  
    32    14    19 ar  
    33    14    33 1   
    34    15    16 ar  
    35    15    25 1   
    36    16    17 ar  
    37    16    20 ar  
    38    17    18 ar  
    39    17    23 ar  
    40    18    19 ar  
    41    19    46 1   
    42    20    21 ar  
    43    20    47 1   
    44    21    22 ar  
    45    21    24 1   
    46    22    23 ar  
    47    22    48 1   
    48    23    49 1   
    49    25    50 1   
    50    25    51 1   
    51    25    52 1   
    52    26    27 1   
    53    26    37 2   
    54    27    29 2   
    55    27    53 1   
    56    28    54 1   
    57    28    55 1   
    58    28    56 1   
    59    29    57 1   
    60    29    58 1   
    61    30    33 1   
    62    31    59 1   
    63    32    60 1   
    64    32    61 1   
@<TRIPOS>SUBSTRUCTURE
     1 9KG         1 TEMP              0 ****  ****    0 ROOT
