@<TRIPOS>MOLECULE
9KH
   21    21     1     0     0
SMALL
No Charge or Current Charge


@<TRIPOS>ATOM
      1 C2          -1.6750     0.9530     0.2380 ca         1 9KH       0.197100
      2 C3          -0.3460     0.9950    -0.2220 ca         1 9KH      -0.242300
      3 C4           0.2870    -0.2500    -0.5020 ca         1 9KH       0.503300
      4 C6          -1.6180    -1.4260     0.0420 ca         1 9KH       0.602300
      5 O1          -2.3580     2.0840     0.5650 oh         1 9KH      -0.554100
      6 N5          -0.3570    -1.4310    -0.3820 nb         1 9KH      -0.723000
      7 C7          -2.3170    -0.2720     0.3690 ca         1 9KH      -0.330000
      8 O8          -2.2070    -2.6330     0.1480 oh         1 9KH      -0.648300
      9 C9           0.3600     2.3510    -0.3870 c3         1 9KH      -0.022800
     10 C10          1.7160    -0.3880    -0.9980 c3         1 9KH      -0.295700
     11 C12          2.6320    -0.2440     0.2050 c          1 9KH       0.730000
     12 O13          2.8620    -1.2390     0.8730 o          1 9KH      -0.723500
     13 O14          3.0360     0.8700     0.4930 o          1 9KH      -0.723500
     14 H2          -1.7510     2.8450     0.4600 ho         1 9KH       0.465000
     15 H3          -3.3440    -0.3220     0.7190 ha         1 9KH       0.113000
     16 H4           0.7270     2.7190     0.5780 hc         1 9KH       0.036033
     17 H5           1.2120     2.3180    -1.0720 hc         1 9KH       0.036033
     18 H6          -0.3160     3.1100    -0.7970 hc         1 9KH       0.036033
     19 H7           1.8290    -1.3920    -1.4250 hc         1 9KH       0.046700
     20 H8           1.9050     0.3930    -1.7390 hc         1 9KH       0.046700
     21 H1          -3.1130    -2.4570     0.4680 ho         1 9KH       0.452000
@<TRIPOS>BOND
     1     1     2 ar  
     2     1     5 1   
     3     1     7 ar  
     4     2     3 ar  
     5     2     9 1   
     6     3     6 ar  
     7     3    10 1   
     8     4     6 ar  
     9     4     7 ar  
    10     4     8 1   
    11     5    14 1   
    12     7    15 1   
    13     8    21 1   
    14     9    16 1   
    15     9    17 1   
    16     9    18 1   
    17    10    11 1   
    18    10    19 1   
    19    10    20 1   
    20    11    12 1   
    21    11    13 1   
@<TRIPOS>SUBSTRUCTURE
     1 9KH         1 TEMP              0 ****  ****    0 ROOT
