@<TRIPOS>MOLECULE
9KH
   21    21     1     0     0
SMALL
bcc


@<TRIPOS>ATOM
      1 C2          -1.7200     0.8980     0.2490 ca         1 9KH       0.197100
      2 C3          -0.3890     0.9880    -0.1770 ca         1 9KH      -0.307600
      3 C4           0.2440    -0.2140    -0.5020 ca         1 9KH       0.568600
      4 C6          -1.6070    -1.4580    -0.0260 ca         1 9KH       0.667600
      5 O1          -2.4630     1.9580     0.6000 oh         1 9KH      -0.515100
      6 N5          -0.3540    -1.4030    -0.4320 nb         1 9KH      -0.723000
      7 C7          -2.3460    -0.3410     0.3290 ca         1 9KH      -0.413300
      8 O8          -2.1220    -2.6990     0.0130 oh         1 9KH      -0.609300
      9 C9           0.3540     2.2900    -0.2690 c3         1 9KH      -0.022800
     10 C10          1.6670    -0.2290    -0.9590 c3         1 9KH      -0.295700
     11 C12          2.7040    -0.0960     0.1880 c          1 9KH       0.940600
     12 O13          2.2720    -0.0870     1.3530 o          1 9KH      -0.828800
     13 O14          3.8940    -0.0280    -0.1760 o          1 9KH      -0.828800
     14 H2          -1.9610     2.7770     0.5340 ho         1 9KH       0.426000
     15 H3          -3.3770    -0.4130     0.6540 ha         1 9KH       0.131000
     16 H4           1.1460     2.3450     0.4790 hc         1 9KH       0.036033
     17 H5           0.8210     2.4130    -1.2470 hc         1 9KH       0.036033
     18 H6          -0.2710     3.1730    -0.1300 hc         1 9KH       0.036033
     19 H7           1.8550    -1.1750    -1.4720 hc         1 9KH       0.046700
     20 H8           1.8530     0.5600    -1.6930 hc         1 9KH       0.046700
     21 H1          -3.0360    -2.6730     0.3180 ho         1 9KH       0.413000
@<TRIPOS>BOND
     1     1     2 ar  
     2     1     5 1   
     3     1     7 ar  
     4     2     3 ar  
     5     2     9 1   
     6     3     6 ar  
     7     3    10 1   
     8     4     6 ar  
     9     4     7 ar  
    10     4     8 1   
    11     5    14 1   
    12     7    15 1   
    13     8    21 1   
    14     9    16 1   
    15     9    17 1   
    16     9    18 1   
    17    10    11 1   
    18    10    19 1   
    19    10    20 1   
    20    11    12 1   
    21    11    13 1   
@<TRIPOS>SUBSTRUCTURE
     1 9KH         1 TEMP              0 ****  ****    0 ROOT
