@<TRIPOS>MOLECULE
9KI
   70    75     1     0     0
SMALL
No Charge or Current Charge


@<TRIPOS>ATOM
      1 C10        -20.8900   -25.9150    55.9000 cc         1 9KI       0.456900
      2 C13        -17.8390   -27.4020    55.5450 c6         1 9KI       0.204300
      3 C15        -17.1620   -29.7540    56.2840 ca         1 9KI       0.397900
      4 C17        -16.6150   -31.7970    57.1920 ca         1 9KI       0.172400
      5 C21        -12.7240   -34.0640    56.1620 c          1 9KI       0.632100
      6 C26        -13.0200   -31.6340    58.2360 ca         1 9KI      -0.104300
      7 C28        -12.2560   -30.3960    60.2140 ca         1 9KI      -0.146500
      8 C01        -29.3200   -26.1750    54.4310 c3         1 9KI       0.077900
      9 C04        -25.9840   -27.1870    53.9320 cc         1 9KI       0.251900
     10 C05        -25.7400   -26.2160    54.9150 cc         1 9KI      -0.134800
     11 C06        -24.4730   -25.8350    55.4720 cc         1 9KI      -0.044200
     12 C07        -24.3170   -24.8670    56.4350 cd         1 9KI      -0.166100
     13 C09        -22.2910   -25.7740    55.8520 cc         1 9KI      -0.252000
     14 C12        -18.8880   -26.7130    54.6130 c6         1 9KI       0.200300
     15 C18        -15.2400   -31.4920    57.0890 ca         1 9KI      -0.289300
     16 C19        -14.1260   -32.4540    57.5210 c3         1 9KI       0.284000
     17 C23        -11.6770   -35.4150    54.4800 c3         1 9KI       0.170900
     18 C25        -14.6620   -33.5690    58.4660 c3         1 9KI      -0.106100
     19 C27        -13.2340   -31.1600    59.5530 ca         1 9KI      -0.068500
     20 C29        -11.0550   -30.0850    59.5660 ca         1 9KI       0.169000
     21 C31        -10.8290   -30.5220    58.2550 ca         1 9KI      -0.146500
     22 C32        -11.8050   -31.2860    57.5900 ca         1 9KI      -0.068500
     23 C33        -14.9270   -30.2370    56.5280 ca         1 9KI       0.172400
     24 C35        -19.6170   -29.0430    56.2490 c6         1 9KI       0.204300
     25 C36        -20.6280   -28.3200    55.3010 c6         1 9KI       0.200300
     26 C38        -20.8780   -24.2320    57.4570 cd         1 9KI       0.133900
     27 C40        -23.2740   -26.3850    55.1070 cd         1 9KI      -0.191000
     28 C41        -26.9460   -25.6840    55.2570 cd         1 9KI      -0.158000
     29 F30        -10.1170   -29.3480    60.2010 f          1 9KI      -0.183000
     30 N02        -27.8630   -26.3710    54.4520 na         1 9KI       0.119800
     31 N03        -27.2600   -27.3120    53.6220 nd         1 9KI      -0.525800
     32 N08        -22.9440   -24.8610    56.6260 na         1 9KI       0.272900
     33 N11        -20.2940   -26.8750    55.1020 nh         1 9KI      -0.777300
     34 N14        -18.1700   -28.8410    55.8650 nh         1 9KI      -0.780300
     35 N16        -17.5680   -30.9340    56.7950 nb         1 9KI      -0.249000
     36 N20        -13.6570   -33.0720    56.2840 ns         1 9KI      -0.513900
     37 N34        -15.8780   -29.3730    56.1300 nb         1 9KI      -0.249000
     38 N37        -20.1540   -25.1530    56.6830 nd         1 9KI      -0.316000
     39 N39        -22.2170   -24.0530    57.4720 nc         1 9KI      -0.299800
     40 O22        -12.6170   -34.3870    54.8440 os         1 9KI      -0.470100
     41 O24        -12.0860   -34.5690    57.0710 o          1 9KI      -0.533000
     42 H1         -16.8640   -27.3180    55.0430 h1         1 9KI       0.076950
     43 H2         -17.7690   -26.8230    56.4770 h1         1 9KI       0.076950
     44 H3         -16.9760   -32.7430    57.5900 h4         1 9KI       0.029100
     45 H4         -12.4320   -30.0420    61.2270 ha         1 9KI       0.133000
     46 H5         -29.6340   -25.8700    53.4250 h1         1 9KI       0.056033
     47 H6         -29.8200   -27.1120    54.7010 h1         1 9KI       0.056033
     48 H7         -29.5990   -25.3950    55.1490 h1         1 9KI       0.056033
     49 H8         -25.2610   -27.8130    53.4260 h4         1 9KI       0.035100
     50 H9         -25.0080   -24.2200    56.9600 h4         1 9KI       0.232000
     51 H10        -18.7970   -27.1540    53.6090 h1         1 9KI       0.073700
     52 H11        -18.6290   -25.6490    54.5070 h1         1 9KI       0.073700
     53 H12        -11.6890   -35.5780    53.3950 h1         1 9KI       0.049700
     54 H13        -10.6560   -35.1320    54.7700 h1         1 9KI       0.049700
     55 H14        -11.9260   -36.3650    54.9700 h1         1 9KI       0.049700
     56 H15        -15.2740   -33.1540    59.2730 hc         1 9KI       0.055033
     57 H16        -15.2790   -34.2890    57.9140 hc         1 9KI       0.055033
     58 H17        -13.8390   -34.1220    58.9310 hc         1 9KI       0.055033
     59 H18        -14.1660   -31.3680    60.0720 ha         1 9KI       0.119000
     60 H19         -9.9010   -30.2650    57.7520 ha         1 9KI       0.133000
     61 H20        -11.6050   -31.5920    56.5670 ha         1 9KI       0.119000
     62 H21        -13.8980   -29.9110    56.3840 h4         1 9KI       0.029100
     63 H22        -19.8860   -30.1100    56.2470 h1         1 9KI       0.076950
     64 H23        -19.7810   -28.6750    57.2730 h1         1 9KI       0.076950
     65 H24        -21.6360   -28.4430    55.7220 h1         1 9KI       0.073700
     66 H25        -20.6260   -28.8370    54.3300 h1         1 9KI       0.073700
     67 H26        -20.2810   -23.6050    58.1080 h5         1 9KI       0.053100
     68 H27        -23.1230   -27.1560    54.3550 ha         1 9KI       0.202000
     69 H28        -27.2260   -24.9150    55.9670 h4         1 9KI       0.152000
     70 H29        -14.0850   -32.7750    55.4200 hn         1 9KI       0.329500
@<TRIPOS>BOND
     1     1    13 1   
     2     1    33 1   
     3     1    38 2   
     4     2    14 1   
     5     2    34 1   
     6     2    42 1   
     7     2    43 1   
     8     3    34 1   
     9     3    35 ar  
    10     3    37 ar  
    11     4    15 ar  
    12     4    35 ar  
    13     4    44 1   
    14     5    36 1   
    15     5    40 1   
    16     5    41 2   
    17     6    16 1   
    18     6    19 ar  
    19     6    22 ar  
    20     7    19 ar  
    21     7    20 ar  
    22     7    45 1   
    23     8    30 1   
    24     8    46 1   
    25     8    47 1   
    26     8    48 1   
    27     9    10 1   
    28     9    31 2   
    29     9    49 1   
    30    10    11 1   
    31    10    28 2   
    32    11    12 2   
    33    11    27 1   
    34    12    32 1   
    35    12    50 1   
    36    13    27 2   
    37    13    32 1   
    38    14    33 1   
    39    14    51 1   
    40    14    52 1   
    41    15    16 1   
    42    15    23 ar  
    43    16    18 1   
    44    16    36 1   
    45    17    40 1   
    46    17    53 1   
    47    17    54 1   
    48    17    55 1   
    49    18    56 1   
    50    18    57 1   
    51    18    58 1   
    52    19    59 1   
    53    20    21 ar  
    54    20    29 1   
    55    21    22 ar  
    56    21    60 1   
    57    22    61 1   
    58    23    37 ar  
    59    23    62 1   
    60    24    25 1   
    61    24    34 1   
    62    24    63 1   
    63    24    64 1   
    64    25    33 1   
    65    25    65 1   
    66    25    66 1   
    67    26    38 1   
    68    26    39 2   
    69    26    67 1   
    70    27    68 1   
    71    28    30 1   
    72    28    69 1   
    73    30    31 1   
    74    32    39 1   
    75    36    70 1   
@<TRIPOS>SUBSTRUCTURE
     1 9KI         1 TEMP              0 ****  ****    0 ROOT
