@<TRIPOS>MOLECULE
9KI
   70    75     1     0     0
SMALL
abcg2


@<TRIPOS>ATOM
      1 C10        -20.6700   -25.4990    55.4430 cc         1 9KI       0.456900
      2 C13        -17.6250   -26.8320    56.5670 c6         1 9KI       0.204300
      3 C15        -17.1370   -29.2120    57.0610 ca         1 9KI       0.397900
      4 C17        -16.7640   -31.4330    57.4440 ca         1 9KI       0.172400
      5 C21        -13.1120   -33.6300    55.5290 c          1 9KI       0.632100
      6 C26        -13.2160   -32.0170    58.2340 ca         1 9KI      -0.104300
      7 C28        -12.3540   -31.6290    60.4710 ca         1 9KI      -0.146500
      8 C01        -29.1650   -27.2580    54.8150 c3         1 9KI       0.077900
      9 C04        -25.7780   -28.1820    54.8790 cc         1 9KI       0.251900
     10 C05        -25.5760   -26.7910    55.0220 cc         1 9KI      -0.134800
     11 C06        -24.3150   -26.0810    55.1570 cc         1 9KI      -0.044200
     12 C07        -24.1470   -24.7040    55.2900 cd         1 9KI      -0.166100
     13 C09        -22.0940   -25.6480    55.3550 cc         1 9KI      -0.252000
     14 C12        -18.3850   -26.3950    55.3170 c6         1 9KI       0.200300
     15 C18        -15.3930   -31.2800    57.2670 ca         1 9KI      -0.289300
     16 C19        -14.3900   -32.4320    57.3320 c3         1 9KI       0.284000
     17 C23        -12.0890   -34.5620    53.6090 c3         1 9KI       0.170900
     18 C25        -15.0470   -33.7180    57.8640 c3         1 9KI      -0.106100
     19 C27        -13.3870   -31.9980    59.6200 ca         1 9KI      -0.068500
     20 C29        -11.1410   -31.2670    59.9150 ca         1 9KI       0.169000
     21 C31        -10.9360   -31.2460    58.5500 ca         1 9KI      -0.146500
     22 C32        -11.9850   -31.6210    57.7150 ca         1 9KI      -0.068500
     23 C33        -14.9890   -29.9730    56.9930 ca         1 9KI       0.172400
     24 C35        -19.4480   -28.3460    57.1180 c6         1 9KI       0.204300
     25 C36        -20.2140   -27.9080    55.8700 c6         1 9KI       0.200300
     26 C38        -20.9760   -23.2140    55.4610 cd         1 9KI       0.133900
     27 C40        -23.0310   -26.6670    55.1880 cd         1 9KI      -0.191000
     28 C41        -26.8640   -26.2700    55.0170 cd         1 9KI      -0.158000
     29 F30        -10.1180   -30.9240    60.7410 f          1 9KI      -0.183000
     30 N02        -27.7160   -27.3060    54.8720 na         1 9KI       0.119800
     31 N03        -27.0710   -28.4850    54.7880 nd         1 9KI      -0.525800
     32 N08        -22.8220   -24.4510    55.3980 na         1 9KI       0.272900
     33 N11        -19.8280   -26.5550    55.4880 nh         1 9KI      -0.777300
     34 N14        -18.0160   -28.1840    56.9370 nh         1 9KI      -0.780300
     35 N16        -17.6310   -30.4310    57.3550 nb         1 9KI      -0.249000
     36 N20        -13.9490   -32.6530    55.9420 ns         1 9KI      -0.513900
     37 N34        -15.8230   -28.9510    56.8840 nb         1 9KI      -0.249000
     38 N37        -20.1440   -24.2700    55.4560 nd         1 9KI      -0.316000
     39 N39        -22.2820   -23.2030    55.4600 nc         1 9KI      -0.299800
     40 O22        -12.9760   -33.5870    54.1830 os         1 9KI      -0.470100
     41 O24        -12.5330   -34.4320    56.2410 o          1 9KI      -0.533000
     42 H1         -16.5570   -26.8040    56.3790 h1         1 9KI       0.076950
     43 H2         -17.8570   -26.1530    57.3950 h1         1 9KI       0.076950
     44 H3         -17.1930   -32.4000    57.6730 h4         1 9KI       0.029100
     45 H4         -12.4850   -31.6240    61.5450 ha         1 9KI       0.133000
     46 H5         -29.5140   -27.6630    53.8650 h1         1 9KI       0.056033
     47 H6         -29.5890   -27.8370    55.6340 h1         1 9KI       0.056033
     48 H7         -29.4790   -26.2210    54.9040 h1         1 9KI       0.056033
     49 H8         -25.0350   -28.9650    54.8390 h4         1 9KI       0.035100
     50 H9         -24.8600   -23.8970    55.3030 h4         1 9KI       0.232000
     51 H10        -18.0790   -27.0240    54.4750 h1         1 9KI       0.073700
     52 H11        -18.1670   -25.3590    55.0850 h1         1 9KI       0.073700
     53 H12        -12.1110   -34.3770    52.5380 h1         1 9KI       0.049700
     54 H13        -11.0780   -34.4330    53.9930 h1         1 9KI       0.049700
     55 H14        -12.4380   -35.5710    53.8250 h1         1 9KI       0.049700
     56 H15        -15.5050   -33.5550    58.8370 hc         1 9KI       0.055033
     57 H16        -15.8170   -34.0560    57.1710 hc         1 9KI       0.055033
     58 H17        -14.2970   -34.4980    57.9560 hc         1 9KI       0.055033
     59 H18        -14.3380   -32.2740    60.0540 ha         1 9KI       0.119000
     60 H19         -9.9760   -30.9500    58.1480 ha         1 9KI       0.133000
     61 H20        -11.8270   -31.6080    56.6470 ha         1 9KI       0.119000
     62 H21        -13.9370   -29.7440    56.8560 h4         1 9KI       0.029100
     63 H22        -19.6700   -29.3840    57.3350 h1         1 9KI       0.076950
     64 H23        -19.7700   -27.7320    57.9670 h1         1 9KI       0.076950
     65 H24        -21.2700   -27.9470    56.1010 h1         1 9KI       0.073700
     66 H25        -20.0050   -28.5930    55.0440 h1         1 9KI       0.073700
     67 H26        -20.5120   -22.2340    55.4870 h5         1 9KI       0.053100
     68 H27        -22.8330   -27.7180    55.0830 ha         1 9KI       0.202000
     69 H28        -27.2230   -25.2570    55.1040 h4         1 9KI       0.152000
     70 H29        -14.3520   -32.0710    55.2270 hn         1 9KI       0.329500
@<TRIPOS>BOND
     1     1    13 1   
     2     1    33 1   
     3     1    38 2   
     4     2    14 1   
     5     2    34 1   
     6     2    42 1   
     7     2    43 1   
     8     3    34 1   
     9     3    35 ar  
    10     3    37 ar  
    11     4    15 ar  
    12     4    35 ar  
    13     4    44 1   
    14     5    36 1   
    15     5    40 1   
    16     5    41 2   
    17     6    16 1   
    18     6    19 ar  
    19     6    22 ar  
    20     7    19 ar  
    21     7    20 ar  
    22     7    45 1   
    23     8    30 1   
    24     8    46 1   
    25     8    47 1   
    26     8    48 1   
    27     9    10 1   
    28     9    31 2   
    29     9    49 1   
    30    10    11 1   
    31    10    28 2   
    32    11    12 2   
    33    11    27 1   
    34    12    32 1   
    35    12    50 1   
    36    13    27 2   
    37    13    32 1   
    38    14    33 1   
    39    14    51 1   
    40    14    52 1   
    41    15    16 1   
    42    15    23 ar  
    43    16    18 1   
    44    16    36 1   
    45    17    40 1   
    46    17    53 1   
    47    17    54 1   
    48    17    55 1   
    49    18    56 1   
    50    18    57 1   
    51    18    58 1   
    52    19    59 1   
    53    20    21 ar  
    54    20    29 1   
    55    21    22 ar  
    56    21    60 1   
    57    22    61 1   
    58    23    37 ar  
    59    23    62 1   
    60    24    25 1   
    61    24    34 1   
    62    24    63 1   
    63    24    64 1   
    64    25    33 1   
    65    25    65 1   
    66    25    66 1   
    67    26    38 1   
    68    26    39 2   
    69    26    67 1   
    70    27    68 1   
    71    28    30 1   
    72    28    69 1   
    73    30    31 1   
    74    32    39 1   
    75    36    70 1   
@<TRIPOS>SUBSTRUCTURE
     1 9KI         1 TEMP              0 ****  ****    0 ROOT
