@<TRIPOS>MOLECULE
9KJ
   51    52     1     0     0
SMALL
No Charge or Current Charge


@<TRIPOS>ATOM
      1 C20          1.1090     2.0460    -0.1050 c3         1 9KJ       0.159600
      2 C22         -3.3080    -1.3640     0.6060 c6         1 9KJ       0.120300
      3 C24         -4.0400    -0.8990    -0.6850 c6         1 9KJ       0.135300
      4 C26         -4.8350     0.4110    -0.4120 c6         1 9KJ       0.143300
      5 O27         -5.4950     0.8310    -1.6200 oh         1 9KJ      -0.724000
      6 C03         -3.8640     1.4990     0.1480 c6         1 9KJ       0.171300
      7 O04         -3.1890     1.0000     1.3370 os         1 9KJ      -0.452000
      8 C05         -2.3990    -0.1910     1.1340 c6         1 9KJ       0.360300
      9 O06         -1.3120     0.1340     0.2370 os         1 9KJ      -0.481000
     10 C07          0.0290    -0.1580     0.7170 c5         1 9KJ       0.156300
     11 C08          0.3200    -1.6760     0.5090 c5         1 9KJ       0.110300
     12 O09         -0.2160    -2.4970     1.5700 oh         1 9KJ      -0.756000
     13 C10          1.8940    -1.7120     0.3400 c5         1 9KJ       0.214500
     14 C11          2.3290    -2.5600    -0.9140 c3         1 9KJ       0.114600
     15 O12          1.7610    -2.1000    -2.1610 oh         1 9KJ      -0.676000
     16 N13          2.2810    -0.2500     0.3670 n3         1 9KJ      -0.708600
     17 C14          3.6760     0.1070    -0.0920 c3         1 9KJ      -0.112200
     18 P15          5.2980    -0.5220     0.6930 p5         1 9KJ       1.295500
     19 O16          5.2000    -1.9860     0.9780 o          1 9KJ      -0.932167
     20 O17          6.4270    -0.2750    -0.2540 o          1 9KJ      -0.932167
     21 O18          5.5530     0.2140     1.9690 o          1 9KJ      -0.932167
     22 C19          1.1030     0.4840    -0.2050 c5         1 9KJ       0.214500
     23 O21          1.8780     2.6670    -1.1560 oh         1 9KJ      -0.654000
     24 O25         -4.9170    -1.9400    -1.1560 oh         1 9KJ      -0.690000
     25 H1           0.0710     2.3980    -0.1650 h1         1 9KJ       0.028700
     26 H2           1.4950     2.3380     0.8800 h1         1 9KJ       0.028700
     27 H4          -3.2730    -0.6840    -1.4460 h1         1 9KJ       0.076700
     28 H5          -5.5890     0.2000     0.3610 h1         1 9KJ       0.036700
     29 H6          -5.8060    -0.0100    -2.0350 ho         1 9KJ       0.511000
     30 H7          -4.3250     4.5810     1.3570 ho         1 9KJ       0.487000
     31 H10         -3.1130     1.7430    -0.6170 h1         1 9KJ       0.089700
     32 H11         -1.9890    -0.4950     2.1100 h2         1 9KJ       0.084700
     33 H12          0.1480     0.1680     1.7600 h1         1 9KJ       0.069700
     34 H13         -0.1430    -1.9830    -0.4390 h1         1 9KJ       0.041700
     35 H14          0.3730    -2.3890     2.3560 ho         1 9KJ       0.496000
     36 H15          2.3490    -2.2170     1.2040 h1         1 9KJ       0.111700
     37 H16          3.4240    -2.5580    -0.9790 h1         1 9KJ       0.044700
     38 H17          2.0270    -3.6010    -0.7340 h1         1 9KJ       0.044700
     39 H18          2.1660    -2.6350    -2.8770 ho         1 9KJ       0.411000
     40 H20          3.7690    -0.1350    -1.1580 h1         1 9KJ       0.012700
     41 H21          3.7940     1.1950    -0.0180 h1         1 9KJ       0.012700
     42 H24          0.9250     0.2130    -1.2560 h1         1 9KJ       0.027700
     43 H25          1.8830     3.6310    -0.9740 ho         1 9KJ       0.418000
     44 H27         -4.4370    -2.7740    -0.9350 ho         1 9KJ       0.459000
     45 O23         -2.5990    -2.6040     0.3510 oh         1 9KJ      -0.738000
     46 C02         -4.6110     2.8220     0.5240 c3         1 9KJ       0.171600
     47 H8          -5.4150     2.5720     1.2300 h1         1 9KJ       0.019200
     48 O01         -3.7500     3.8250     1.0980 oh         1 9KJ      -0.691000
     49 H9          -5.0870     3.2200    -0.3820 h1         1 9KJ       0.019200
     50 H26         -1.7080    -2.5440     0.8150 ho         1 9KJ       0.541000
     51 H3          -4.0690    -1.5460     1.3790 h1         1 9KJ       0.033700
@<TRIPOS>BOND
     1     1    22 1   
     2     1    23 1   
     3     1    25 1   
     4     1    26 1   
     5     2     3 1   
     6     2     8 1   
     7     2    45 1   
     8     2    51 1   
     9     3     4 1   
    10     3    24 1   
    11     3    27 1   
    12     4     5 1   
    13     4     6 1   
    14     4    28 1   
    15     5    29 1   
    16     6     7 1   
    17     6    31 1   
    18     6    46 1   
    19     7     8 1   
    20     8     9 1   
    21     8    32 1   
    22     9    10 1   
    23    10    11 1   
    24    10    22 1   
    25    10    33 1   
    26    11    12 1   
    27    11    13 1   
    28    11    34 1   
    29    12    35 1   
    30    13    14 1   
    31    13    16 1   
    32    13    36 1   
    33    14    15 1   
    34    14    37 1   
    35    14    38 1   
    36    15    39 1   
    37    16    17 1   
    38    16    22 1   
    39    17    18 1   
    40    17    40 1   
    41    17    41 1   
    42    18    19 1   
    43    18    20 1   
    44    18    21 1   
    45    22    42 1   
    46    23    43 1   
    47    24    44 1   
    48    30    48 1   
    49    45    50 1   
    50    46    47 1   
    51    46    48 1   
    52    46    49 1   
@<TRIPOS>SUBSTRUCTURE
     1 9KJ         1 TEMP              0 ****  ****    0 ROOT
