@<TRIPOS>MOLECULE
9KJ
   51    52     1     0     0
SMALL
bcc


@<TRIPOS>ATOM
      1 C20          0.8840     1.8670     0.0770 c3         1 9KJ       0.136400
      2 C22         -3.3930    -1.3360     0.6870 c6         1 9KJ       0.097100
      3 C24         -4.1680    -0.8890    -0.5450 c6         1 9KJ       0.112100
      4 C26         -4.7450     0.5040    -0.3210 c6         1 9KJ       0.120100
      5 O27         -5.3610     0.9980    -1.4850 oh         1 9KJ      -0.601800
      6 C03         -3.6250     1.4650     0.0730 c6         1 9KJ       0.148100
      7 O04         -2.9580     0.9690     1.2230 os         1 9KJ      -0.405600
      8 C05         -2.3520    -0.2780     1.0710 c6         1 9KJ       0.313900
      9 O06         -1.3420    -0.2330     0.1140 os         1 9KJ      -0.434600
     10 C07         -0.0230    -0.4080     0.5690 c5         1 9KJ       0.133100
     11 C08          0.4780    -1.8310     0.4340 c5         1 9KJ       0.087100
     12 O09          0.0110    -2.6190     1.5140 oh         1 9KJ      -0.633800
     13 C10          2.0070    -1.6780     0.3440 c5         1 9KJ       0.214500
     14 C11          2.5990    -2.5570    -0.7470 c3         1 9KJ       0.091400
     15 O12          2.0420    -2.2230    -2.0020 oh         1 9KJ      -0.613800
     16 N13          2.2150    -0.2430     0.1910 n3         1 9KJ      -0.708600
     17 C14          3.4860     0.2230    -0.3190 c3         1 9KJ       0.045600
     18 P15          4.9460    -0.0270     0.8170 p5         1 9KJ       1.137700
     19 O16          5.1250    -1.5430     1.0120 o          1 9KJ      -0.932167
     20 O17          6.0980     0.6180     0.0250 o          1 9KJ      -0.932167
     21 O18          4.5980     0.7170     2.1110 o          1 9KJ      -0.932167
     22 C19          0.9870     0.3850    -0.2480 c5         1 9KJ       0.214500
     23 O21          1.4500     2.6470    -0.9580 oh         1 9KJ      -0.591800
     24 O25         -5.2500    -1.7490    -0.8280 oh         1 9KJ      -0.627800
     25 H1          -0.1760     2.1240     0.2070 h1         1 9KJ       0.028700
     26 H2           1.3840     2.0400     1.0400 h1         1 9KJ       0.028700
     27 H4          -3.4790    -0.8430    -1.4010 h1         1 9KJ       0.076700
     28 H5          -5.4640     0.4500     0.5130 h1         1 9KJ       0.036700
     29 H6          -6.0220     0.3550    -1.7640 ho         1 9KJ       0.412000
     30 H7          -3.3810     4.5800     0.7920 ho         1 9KJ       0.388000
     31 H10         -2.9220     1.5570    -0.7670 h1         1 9KJ       0.089700
     32 H11         -1.9390    -0.5180     2.0590 h2         1 9KJ       0.084700
     33 H12          0.0690    -0.0910     1.6190 h1         1 9KJ       0.069700
     34 H13          0.0910    -2.2300    -0.5120 h1         1 9KJ       0.041700
     35 H14          0.2670    -3.5340     1.3590 ho         1 9KJ       0.397000
     36 H15          2.4710    -2.0180     1.2760 h1         1 9KJ       0.111700
     37 H16          3.6860    -2.4370    -0.7340 h1         1 9KJ       0.044700
     38 H17          2.3890    -3.6050    -0.4830 h1         1 9KJ       0.044700
     39 H18          2.4760    -2.7580    -2.6710 ho         1 9KJ       0.372000
     40 H20          3.7120    -0.1940    -1.3150 h1         1 9KJ       0.012700
     41 H21          3.4020     1.2990    -0.4740 h1         1 9KJ       0.012700
     42 H24          0.7700     0.2520    -1.3250 h1         1 9KJ       0.027700
     43 H25          1.4110     3.5690    -0.6870 ho         1 9KJ       0.379000
     44 H27         -4.9080    -2.5580    -1.2200 ho         1 9KJ       0.420000
     45 O23         -2.8210    -2.5900     0.4240 oh         1 9KJ      -0.615800
     46 C02         -4.1440     2.8440     0.4160 c3         1 9KJ       0.148400
     47 H8          -4.8220     2.7690     1.2790 h1         1 9KJ       0.019200
     48 O01         -3.0470     3.6860     0.6830 oh         1 9KJ      -0.568800
     49 H9          -4.7370     3.2100    -0.4280 h1         1 9KJ       0.019200
     50 H26         -2.0840    -2.7490     1.0290 ho         1 9KJ       0.442000
     51 H3          -4.1000    -1.3970     1.5300 h1         1 9KJ       0.033700
@<TRIPOS>BOND
     1     1    22 1   
     2     1    23 1   
     3     1    25 1   
     4     1    26 1   
     5     2     3 1   
     6     2     8 1   
     7     2    45 1   
     8     2    51 1   
     9     3     4 1   
    10     3    24 1   
    11     3    27 1   
    12     4     5 1   
    13     4     6 1   
    14     4    28 1   
    15     5    29 1   
    16     6     7 1   
    17     6    31 1   
    18     6    46 1   
    19     7     8 1   
    20     8     9 1   
    21     8    32 1   
    22     9    10 1   
    23    10    11 1   
    24    10    22 1   
    25    10    33 1   
    26    11    12 1   
    27    11    13 1   
    28    11    34 1   
    29    12    35 1   
    30    13    14 1   
    31    13    16 1   
    32    13    36 1   
    33    14    15 1   
    34    14    37 1   
    35    14    38 1   
    36    15    39 1   
    37    16    17 1   
    38    16    22 1   
    39    17    18 1   
    40    17    40 1   
    41    17    41 1   
    42    18    19 1   
    43    18    20 1   
    44    18    21 1   
    45    22    42 1   
    46    23    43 1   
    47    24    44 1   
    48    30    48 1   
    49    45    50 1   
    50    46    47 1   
    51    46    48 1   
    52    46    49 1   
@<TRIPOS>SUBSTRUCTURE
     1 9KJ         1 TEMP              0 ****  ****    0 ROOT
