@<TRIPOS>MOLECULE
9KK
   24    23     1     0     0
SMALL
bcc


@<TRIPOS>ATOM
      1 N           22.7940     5.5680   -18.1650 n7         1 9KK      -0.775200
      2 CE          19.8960     1.0320   -18.9280 c3         1 9KK      -0.086100
      3 CD          20.0590     2.3470   -19.6770 c3         1 9KK      -0.076400
      4 CG          21.2600     3.1570   -19.2040 c3         1 9KK      -0.081400
      5 CB          21.4450     4.4550   -19.9810 c3         1 9KK      -0.092400
      6 CA          22.6990     5.2400   -19.5820 c3         1 9KK       0.034500
      7 CM          21.7270     6.4010   -17.6530 c3         1 9KK       0.163100
      8 C           22.9340     6.5110   -20.4540 c          1 9KK       0.934600
      9 O           22.2110     6.6580   -21.4600 o          1 9KK      -0.831300
     10 OXT         23.8550     7.2670   -20.0910 o          1 9KK      -0.831300
     11 H           22.8330     4.7130   -17.6250 hn         1 9KK       0.307800
     12 HE3         19.0260     0.4750   -19.2770 hc         1 9KK       0.020367
     13 HE2         20.7710     0.3930   -19.0590 hc         1 9KK       0.020367
     14 HE1         19.7710     1.2010   -17.8570 hc         1 9KK       0.020367
     15 HD2         19.1520     2.9490   -19.5630 hc         1 9KK       0.033700
     16 HD3         20.1540     2.1480   -20.7490 hc         1 9KK       0.033700
     17 HG2         21.1410     3.3640   -18.1350 hc         1 9KK       0.022200
     18 HG3         22.1660     2.5450   -19.2930 hc         1 9KK       0.022200
     19 HB2         20.5500     5.0750   -19.8710 hc         1 9KK       0.046700
     20 HB3         21.5090     4.2190   -21.0460 hc         1 9KK       0.046700
     21 HA          23.5600     4.5850   -19.7800 h1         1 9KK       0.031700
     22 HM1         21.8780     6.5640   -16.5850 h1         1 9KK       0.011700
     23 HM3         21.7540     7.3810   -18.1330 h1         1 9KK       0.011700
     24 HM2         20.7120     6.0000   -17.7800 h1         1 9KK       0.011700
@<TRIPOS>BOND
     1     1     6 1   
     2     1     7 1   
     3     1    11 1   
     4     2     3 1   
     5     2    12 1   
     6     2    13 1   
     7     2    14 1   
     8     3     4 1   
     9     3    15 1   
    10     3    16 1   
    11     4     5 1   
    12     4    17 1   
    13     4    18 1   
    14     5     6 1   
    15     5    19 1   
    16     5    20 1   
    17     6     8 1   
    18     6    21 1   
    19     7    22 1   
    20     7    23 1   
    21     7    24 1   
    22     8     9 1   
    23     8    10 1   
@<TRIPOS>SUBSTRUCTURE
     1 9KK         1 TEMP              0 ****  ****    0 ROOT
