@<TRIPOS>MOLECULE
9KK
   24    23     1     0     0
SMALL
No Charge or Current Charge


@<TRIPOS>ATOM
      1 N           22.6720     5.5860   -18.0460 n7         1 9KK      -0.830400
      2 CE          19.9260     0.9210   -18.9810 c3         1 9KK      -0.086100
      3 CD          20.0830     2.2730   -19.7040 c3         1 9KK      -0.076400
      4 CG          21.3000     3.0860   -19.2100 c3         1 9KK      -0.081400
      5 CB          21.4550     4.4440   -19.9390 c3         1 9KK      -0.092400
      6 CA          22.7130     5.2610   -19.5190 c3         1 9KK       0.034500
      7 CM          21.6980     6.6090   -17.6160 c3         1 9KK       0.163100
      8 C           22.9840     6.4980   -20.4790 c          1 9KK       0.724000
      9 O           22.0330     7.1010   -20.9660 o          1 9KK      -0.726000
     10 OXT         24.1470     6.7810   -20.7410 o          1 9KK      -0.726000
     11 H           22.4690     4.7190   -17.5370 hn         1 9KK       0.363000
     12 HE3         19.0520     0.3820   -19.3650 hc         1 9KK       0.020367
     13 HE2         20.8120     0.2940   -19.1350 hc         1 9KK       0.020367
     14 HE1         19.7900     1.0710   -17.9030 hc         1 9KK       0.020367
     15 HD2         19.1690     2.8620   -19.5600 hc         1 9KK       0.033700
     16 HD3         20.1800     2.0900   -20.7820 hc         1 9KK       0.033700
     17 HG2         21.1960     3.2560   -18.1320 hc         1 9KK       0.022200
     18 HG3         22.2110     2.4930   -19.3560 hc         1 9KK       0.022200
     19 HB2         20.5490     5.0450   -19.7900 hc         1 9KK       0.046700
     20 HB3         21.5200     4.2490   -21.0170 hc         1 9KK       0.046700
     21 HA          23.5670     4.5900   -19.6810 h1         1 9KK       0.031700
     22 HM1         21.7770     6.7760   -16.5340 h1         1 9KK       0.011700
     23 HM3         21.8840     7.5660   -18.1200 h1         1 9KK       0.011700
     24 HM2         20.6700     6.2930   -17.8340 h1         1 9KK       0.011700
@<TRIPOS>BOND
     1     1     6 1   
     2     1     7 1   
     3     1    11 1   
     4     2     3 1   
     5     2    12 1   
     6     2    13 1   
     7     2    14 1   
     8     3     4 1   
     9     3    15 1   
    10     3    16 1   
    11     4     5 1   
    12     4    17 1   
    13     4    18 1   
    14     5     6 1   
    15     5    19 1   
    16     5    20 1   
    17     6     8 1   
    18     6    21 1   
    19     7    22 1   
    20     7    23 1   
    21     7    24 1   
    22     8     9 1   
    23     8    10 1   
@<TRIPOS>SUBSTRUCTURE
     1 9KK         1 TEMP              0 ****  ****    0 ROOT
