@<TRIPOS>MOLECULE
9KL
   32    33     1     0     0
SMALL
No Charge or Current Charge


@<TRIPOS>ATOM
      1 C10         -0.6160     1.6730    -1.5920 ca         1 9KL      -0.139000
      2 O13          1.5950    -2.3490    -0.2650 o          1 9KL      -0.541100
      3 C01         -4.4200    -0.5580    -1.3550 c3         1 9KL      -0.055100
      4 C02         -3.3930    -0.6090    -0.1960 c3         1 9KL      -0.176400
      5 C03         -3.9310     0.0790     1.0800 c          1 9KL       0.725000
      6 C06         -2.0180    -0.0530    -0.5820 ca         1 9KL       0.000700
      7 C07         -0.8550    -0.7870    -0.2700 ca         1 9KL      -0.072000
      8 C08          0.4280    -0.3010    -0.6040 ca         1 9KL      -0.184600
      9 C09          0.5350     0.9330    -1.2830 ca         1 9KL      -0.106000
     10 C11         -1.8860     1.1870    -1.2400 ca         1 9KL      -0.055000
     11 C12          1.6550    -1.1230    -0.2710 c          1 9KL       0.598300
     12 C14          2.9550    -0.4200     0.0540 ca         1 9KL      -0.154600
     13 C15          4.1860    -1.0440    -0.2440 ca         1 9KL      -0.066000
     14 C16          5.4010    -0.4100     0.0650 ca         1 9KL      -0.131500
     15 C17          5.4020     0.8500     0.6850 ca         1 9KL      -0.102000
     16 C18          4.1840     1.4720     1.0010 ca         1 9KL      -0.131500
     17 C19          2.9660     0.8410     0.6930 ca         1 9KL      -0.066000
     18 O04         -4.1730     1.2770     1.0450 o          1 9KL      -0.723500
     19 O05         -4.0680    -0.6040     2.0850 o          1 9KL      -0.723500
     20 H101        -0.5260     2.6250    -2.1090 ha         1 9KL       0.096000
     21 H011        -4.6730     0.4730    -1.6270 hc         1 9KL       0.017367
     22 H021        -3.2690    -1.6720     0.0470 hc         1 9KL       0.039700
     23 H071        -0.9490    -1.7420     0.2420 ha         1 9KL       0.119000
     24 H091         1.5080     1.3170    -1.5830 ha         1 9KL       0.096000
     25 H111        -2.7650     1.7790    -1.4800 ha         1 9KL       0.122000
     26 H151         4.2020    -2.0220    -0.7240 ha         1 9KL       0.131000
     27 H161         6.3440    -0.8960    -0.1750 ha         1 9KL       0.108000
     28 H171         6.3430     1.3400     0.9250 ha         1 9KL       0.102000
     29 H181         4.1820     2.4440     1.4910 ha         1 9KL       0.108000
     30 H191         2.0330     1.3320     0.9660 ha         1 9KL       0.131000
     31 H013        -4.0210    -1.0620    -2.2430 hc         1 9KL       0.017367
     32 H012        -5.3470    -1.0660    -1.0640 hc         1 9KL       0.017367
@<TRIPOS>BOND
     1     1     9 ar  
     2     1    10 ar  
     3     1    20 1   
     4     2    11 2   
     5     3     4 1   
     6     3    21 1   
     7     3    31 1   
     8     3    32 1   
     9     4     5 1   
    10     4     6 1   
    11     4    22 1   
    12     5    18 1   
    13     5    19 1   
    14     6     7 ar  
    15     6    10 ar  
    16     7     8 ar  
    17     7    23 1   
    18     8     9 ar  
    19     8    11 1   
    20     9    24 1   
    21    10    25 1   
    22    11    12 1   
    23    12    13 ar  
    24    12    17 ar  
    25    13    14 ar  
    26    13    26 1   
    27    14    15 ar  
    28    14    27 1   
    29    15    16 ar  
    30    15    28 1   
    31    16    17 ar  
    32    16    29 1   
    33    17    30 1   
@<TRIPOS>SUBSTRUCTURE
     1 9KL         1 TEMP              0 ****  ****    0 ROOT
