@<TRIPOS>MOLECULE
9KL
   32    33     1     0     0
SMALL
abcg2


@<TRIPOS>ATOM
      1 C10         -0.6610     1.7020    -1.4980 ca         1 9KL      -0.139000
      2 O13          1.5670    -2.2510    -0.2620 o          1 9KL      -0.541100
      3 C01         -4.2150    -0.8370    -1.3300 c3         1 9KL      -0.055100
      4 C02         -3.3440    -0.5990    -0.0950 c3         1 9KL      -0.176400
      5 C03         -4.0840     0.2590     0.9680 c          1 9KL       0.725000
      6 C06         -2.0020    -0.0350    -0.4680 ca         1 9KL       0.000700
      7 C07         -0.8340    -0.7310    -0.2000 ca         1 9KL      -0.072000
      8 C08          0.4210    -0.2170    -0.5410 ca         1 9KL      -0.184600
      9 C09          0.5030     1.0080    -1.1960 ca         1 9KL      -0.106000
     10 C11         -1.8940     1.1930    -1.1270 ca         1 9KL      -0.055000
     11 C12          1.6290    -1.0360    -0.2660 c          1 9KL       0.598300
     12 C14          2.9250    -0.3550     0.0060 ca         1 9KL      -0.154600
     13 C15          4.1110    -0.9900    -0.3660 ca         1 9KL      -0.066000
     14 C16          5.3340    -0.4050    -0.0850 ca         1 9KL      -0.131500
     15 C17          5.3870     0.8060     0.5960 ca         1 9KL      -0.102000
     16 C18          4.2120     1.4320     0.9900 ca         1 9KL      -0.131500
     17 C19          2.9850     0.8590     0.6890 ca         1 9KL      -0.066000
     18 O04         -3.4520     1.1880     1.5030 o          1 9KL      -0.723500
     19 O05         -5.2580    -0.0790     1.2140 o          1 9KL      -0.723500
     20 H101        -0.6020     2.6470    -2.0220 ha         1 9KL       0.096000
     21 H011        -4.4790     0.0990    -1.8240 hc         1 9KL       0.017367
     22 H021        -3.1710    -1.5770     0.3720 hc         1 9KL       0.039700
     23 H071        -0.8920    -1.6900     0.3020 ha         1 9KL       0.119000
     24 H091         1.4610     1.4110    -1.4960 ha         1 9KL       0.096000
     25 H111        -2.7890     1.7580    -1.3580 ha         1 9KL       0.122000
     26 H151         4.0740    -1.9360    -0.8920 ha         1 9KL       0.131000
     27 H161         6.2490    -0.8940    -0.3910 ha         1 9KL       0.108000
     28 H171         6.3440     1.2590     0.8200 ha         1 9KL       0.102000
     29 H181         4.2500     2.3670     1.5330 ha         1 9KL       0.108000
     30 H191         2.0760     1.3510     1.0080 ha         1 9KL       0.131000
     31 H013        -3.7010    -1.4640    -2.0600 hc         1 9KL       0.017367
     32 H012        -5.1420    -1.3360    -1.0530 hc         1 9KL       0.017367
@<TRIPOS>BOND
     1     1     9 ar  
     2     1    10 ar  
     3     1    20 1   
     4     2    11 2   
     5     3     4 1   
     6     3    21 1   
     7     3    31 1   
     8     3    32 1   
     9     4     5 1   
    10     4     6 1   
    11     4    22 1   
    12     5    18 1   
    13     5    19 1   
    14     6     7 ar  
    15     6    10 ar  
    16     7     8 ar  
    17     7    23 1   
    18     8     9 ar  
    19     8    11 1   
    20     9    24 1   
    21    10    25 1   
    22    11    12 1   
    23    12    13 ar  
    24    12    17 ar  
    25    13    14 ar  
    26    13    26 1   
    27    14    15 ar  
    28    14    27 1   
    29    15    16 ar  
    30    15    28 1   
    31    16    17 ar  
    32    16    29 1   
    33    17    30 1   
@<TRIPOS>SUBSTRUCTURE
     1 9KL         1 TEMP              0 ****  ****    0 ROOT
