@<TRIPOS>MOLECULE
9KO
   80    85     1     0     0
SMALL
abcg2


@<TRIPOS>ATOM
      1 C10        -10.2380     1.1350     2.1930 ca         1 9KO      -0.124000
      2 C13        -11.1120     2.4000    -1.2380 c3         1 9KO       0.359300
      3 C17         -9.0910     1.2160    -0.3350 ca         1 9KO      -0.007000
      4 C20         -3.1600    -2.0410     0.6680 ca         1 9KO      -0.019000
      5 C22         -1.7820    -1.8360    -1.2720 c          1 9KO       0.625000
      6 C02         -3.1030    -3.2200     1.4060 ca         1 9KO      -0.078300
      7 C03         -4.2720    -3.6170     2.0490 ca         1 9KO      -0.081000
      8 C04         -5.4360    -2.8760     1.9620 ca         1 9KO      -0.157000
      9 C05         -5.4740    -1.6960     1.2190 ca         1 9KO      -0.021000
     10 C07         -7.0480     0.0550     0.4310 c          1 9KO       0.620700
     11 C08         -8.4100     0.6050     0.7160 ca         1 9KO      -0.162600
     12 C09         -8.9850     0.5750     1.9820 ca         1 9KO      -0.060000
     13 C11        -10.9240     1.7220     1.1450 ca         1 9KO      -0.040000
     14 C12        -10.3450     1.7620    -0.1210 ca         1 9KO      -0.205300
     15 C19         -4.3160    -1.2800     0.5660 ca         1 9KO      -0.118000
     16 C25          0.4760    -1.0340    -1.0310 ca         1 9KO       0.310900
     17 C27          2.6970    -0.7270    -0.7350 ca         1 9KO       0.420900
     18 C29          5.1800    -0.4490    -0.8310 ca         1 9KO       0.212000
     19 C30          5.5230    -0.2920     0.5130 ca         1 9KO      -0.059000
     20 C31          6.8350    -0.0340     0.8600 ca         1 9KO      -0.202000
     21 C32          7.8190     0.0540    -0.1370 ca         1 9KO       0.581900
     22 C34          6.2230    -0.3220    -1.7450 ca         1 9KO       0.337900
     23 C36          9.9920     0.8440    -0.9000 c6         1 9KO       0.187800
     24 C37         11.4590     0.5460    -0.6520 c6         1 9KO       0.089500
     25 C39         12.7530     1.9460     0.8860 c          1 9KO       0.609100
     26 C40         13.0340     2.3360     2.3190 c3         1 9KO      -0.177100
     27 C42         11.0420     0.3280     1.6980 c6         1 9KO       0.089500
     28 C43          9.5620     0.6090     1.4840 c6         1 9KO       0.187800
     29 C45          1.3570    -0.4190     1.0510 ca         1 9KO       0.181900
     30 C46          0.2380    -0.6910     0.3060 ca         1 9KO      -0.311300
     31 C47         -1.1700    -0.6000     0.7760 c6         1 9KO       0.193300
     32 F14        -11.4990     3.6420    -0.9200 f          1 9KO      -0.110333
     33 F15        -10.4060     2.4840    -2.3680 f          1 9KO      -0.110333
     34 F16        -12.2290     1.7140    -1.5210 f          1 9KO      -0.110333
     35 N06         -6.6850    -0.9940     1.2070 ns         1 9KO      -0.141000
     36 N21         -1.9740    -1.5660     0.0430 n          1 9KO      -0.251400
     37 N23         -0.5900    -1.3780    -1.8320 n          1 9KO      -0.393300
     38 N26          1.6840    -1.0490    -1.5500 nb         1 9KO      -0.300000
     39 N33          7.4790    -0.0840    -1.4170 nb         1 9KO      -0.714000
     40 N35          9.1590     0.2560     0.1380 nh         1 9KO      -0.762300
     41 N38         11.8440     0.9670     0.6790 n          1 9KO      -0.416800
     42 N44          2.5930    -0.4330     0.5540 nb         1 9KO      -0.259000
     43 O18         -6.3500     0.5340    -0.4450 o          1 9KO      -0.567100
     44 O41         13.3400     2.4910    -0.0400 o          1 9KO      -0.601100
     45 O48         -2.5810    -2.4660    -1.9380 o          1 9KO      -0.547000
     46 H1         -10.6750     1.1190     3.1810 ha         1 9KO       0.126000
     47 H2          -8.6300     1.2480    -1.3120 ha         1 9KO       0.155000
     48 H3          -1.3060    -1.4640    -3.7860 h1         1 9KO       0.055033
     49 H4           0.3610    -0.9140    -3.6210 h1         1 9KO       0.055033
     50 H5          -0.0190    -2.6310    -3.4440 h1         1 9KO       0.055033
     51 H6          -1.0400    -3.4520     1.9880 hc         1 9KO       0.045700
     52 H7          -2.0000    -4.9210     2.0980 hc         1 9KO       0.045700
     53 H8          -1.4710    -4.3230     0.5280 hc         1 9KO       0.045700
     54 H9          -4.2740    -4.5280     2.6360 ha         1 9KO       0.117000
     55 H10         -6.3240    -3.2170     2.4810 ha         1 9KO       0.111000
     56 H11         -8.4600     0.1450     2.8250 ha         1 9KO       0.119000
     57 H12        -11.9010     2.1510     1.3260 ha         1 9KO       0.133000
     58 H13         -4.2950    -0.3750    -0.0190 ha         1 9KO       0.155000
     59 H14          4.7750    -0.3560     1.2860 ha         1 9KO       0.151000
     60 H15          7.0640     0.1020     1.9060 ha         1 9KO       0.121000
     61 H16          6.0190    -0.4220    -2.8080 h4         1 9KO       0.015100
     62 H17          9.8430     1.9320    -0.9480 h1         1 9KO       0.053950
     63 H18          9.7060     0.4330    -1.8650 h1         1 9KO       0.053950
     64 H19         11.6390    -0.5290    -0.7490 h1         1 9KO       0.063200
     65 H20         12.0670     1.0560    -1.3950 h1         1 9KO       0.063200
     66 H21         13.3880     1.4880     2.9070 hc         1 9KO       0.060033
     67 H22         13.8010     3.1060     2.3310 hc         1 9KO       0.060033
     68 H23         12.1470     2.7310     2.8150 hc         1 9KO       0.060033
     69 H24         11.3230     0.6640     2.6920 h1         1 9KO       0.063200
     70 H25         11.2130    -0.7520     1.6580 h1         1 9KO       0.063200
     71 H26          9.0200     0.0070     2.2110 h1         1 9KO       0.053950
     72 H27          9.3500     1.6650     1.7030 h1         1 9KO       0.053950
     73 H28          1.2640    -0.1670     2.1030 h4         1 9KO       0.022100
     74 H29         -1.2410    -0.8270     1.8400 h1         1 9KO       0.055200
     75 H30         -1.5690     0.4110     0.6350 h1         1 9KO       0.055200
     76 H31         -7.3970    -1.3870     1.8030 hn         1 9KO       0.154000
     77 H32          3.8750    -0.9300    -2.3250 hn         1 9KO       0.513000
     78 N28          3.9130    -0.7290    -1.3370 nu         1 9KO      -0.915900
     79 C24         -0.3760    -1.6190    -3.2500 c3         1 9KO       0.099300
     80 C01         -1.8390    -4.0200     1.5090 c3         1 9KO      -0.039800
@<TRIPOS>BOND
     1     1    12 ar  
     2     1    13 ar  
     3     1    46 1   
     4     2    14 1   
     5     2    32 1   
     6     2    33 1   
     7     2    34 1   
     8     3    11 ar  
     9     3    14 ar  
    10     3    47 1   
    11     4     6 ar  
    12     4    15 ar  
    13     4    36 1   
    14     5    36 1   
    15     5    37 1   
    16     5    45 2   
    17     6     7 ar  
    18     6    80 1   
    19     7     8 ar  
    20     7    54 1   
    21     8     9 ar  
    22     8    55 1   
    23     9    15 ar  
    24     9    35 1   
    25    10    11 1   
    26    10    35 1   
    27    10    43 2   
    28    11    12 ar  
    29    12    56 1   
    30    13    14 ar  
    31    13    57 1   
    32    15    58 1   
    33    16    30 ar  
    34    16    37 1   
    35    16    38 ar  
    36    17    38 ar  
    37    17    42 ar  
    38    17    78 1   
    39    18    19 ar  
    40    18    22 ar  
    41    18    78 1   
    42    19    20 ar  
    43    19    59 1   
    44    20    21 ar  
    45    20    60 1   
    46    21    39 ar  
    47    21    40 1   
    48    22    39 ar  
    49    22    61 1   
    50    23    24 1   
    51    23    40 1   
    52    23    62 1   
    53    23    63 1   
    54    24    41 1   
    55    24    64 1   
    56    24    65 1   
    57    25    26 1   
    58    25    41 1   
    59    25    44 2   
    60    26    66 1   
    61    26    67 1   
    62    26    68 1   
    63    27    28 1   
    64    27    41 1   
    65    27    69 1   
    66    27    70 1   
    67    28    40 1   
    68    28    71 1   
    69    28    72 1   
    70    29    30 ar  
    71    29    42 ar  
    72    29    73 1   
    73    30    31 1   
    74    31    36 1   
    75    31    74 1   
    76    31    75 1   
    77    35    76 1   
    78    37    79 1   
    79    48    79 1   
    80    49    79 1   
    81    50    79 1   
    82    51    80 1   
    83    52    80 1   
    84    53    80 1   
    85    77    78 1   
@<TRIPOS>SUBSTRUCTURE
     1 9KO         1 TEMP              0 ****  ****    0 ROOT
