@<TRIPOS>MOLECULE
9KO
   80    85     1     0     0
SMALL
No Charge or Current Charge


@<TRIPOS>ATOM
      1 C10        -10.4440     1.0670     1.1180 ca         1 9KO      -0.124000
      2 C13         -9.4440     4.6050    -0.0230 c3         1 9KO       0.359300
      3 C17         -8.1270     2.4580     0.3780 ca         1 9KO      -0.007000
      4 C20         -3.2980    -2.6430     0.7740 ca         1 9KO      -0.019000
      5 C22         -1.6850    -3.2790    -1.0430 c          1 9KO       0.625000
      6 C02         -3.6120    -3.8850     1.3840 ca         1 9KO      -0.078300
      7 C03         -4.8930    -4.0850     1.9300 ca         1 9KO      -0.081000
      8 C04         -5.8720    -3.0840     1.8430 ca         1 9KO      -0.157000
      9 C05         -5.5940    -1.8680     1.2000 ca         1 9KO      -0.021000
     10 C07         -6.6650     0.4240     0.7330 c          1 9KO       0.620700
     11 C08         -8.0260     1.0960     0.7460 ca         1 9KO      -0.162600
     12 C09         -9.2060     0.4050     1.1150 ca         1 9KO      -0.060000
     13 C11        -10.5300     2.4190     0.7520 ca         1 9KO      -0.040000
     14 C12         -9.3710     3.1250     0.3710 ca         1 9KO      -0.205300
     15 C19         -4.3130    -1.6700     0.6430 ca         1 9KO      -0.118000
     16 C25          0.5370    -2.1800    -1.0520 ca         1 9KO       0.310900
     17 C27          2.6790    -1.4050    -0.8290 ca         1 9KO       0.420900
     18 C29          5.2200    -0.9090    -0.8850 ca         1 9KO       0.212000
     19 C30          5.4530    -0.4690     0.4330 ca         1 9KO      -0.059000
     20 C31          6.7040     0.0870     0.7560 ca         1 9KO      -0.202000
     21 C32          7.7020     0.1910    -0.2340 ca         1 9KO       0.581900
     22 C34          6.3000    -0.7710    -1.8020 ca         1 9KO       0.337900
     23 C36          9.6300     1.6540    -0.9700 c6         1 9KO       0.187800
     24 C37         11.1780     1.6570    -0.8470 c6         1 9KO       0.089500
     25 C39         12.2180     3.1250     0.9480 c          1 9KO       0.609100
     26 C40         12.6350     3.3090     2.4080 c3         1 9KO      -0.177100
     27 C42         11.0360     0.9110     1.4940 c6         1 9KO       0.089500
     28 C43          9.4830     0.8870     1.4200 c6         1 9KO       0.187800
     29 C45          1.0870    -0.4250     0.4860 ca         1 9KO       0.181900
     30 C46          0.1220    -1.2770    -0.0730 ca         1 9KO      -0.311300
     31 C47         -1.3370    -1.2000     0.3200 c6         1 9KO       0.193300
     32 F14         -9.1010     5.4050     1.0110 f          1 9KO      -0.110333
     33 F15         -8.6070     4.9000    -1.0440 f          1 9KO      -0.110333
     34 F16        -10.6820     4.9800    -0.4190 f          1 9KO      -0.110333
     35 N06         -6.6440    -0.9120     1.1170 ns         1 9KO      -0.141000
     36 N21         -2.0700    -2.4500     0.0430 n          1 9KO      -0.251400
     37 N23         -0.4060    -3.0920    -1.6160 n          1 9KO      -0.393300
     38 N26          1.8290    -2.2490    -1.4310 nb         1 9KO      -0.300000
     39 N33          7.5070    -0.2330    -1.4940 nb         1 9KO      -0.714000
     40 N35          8.9800     0.7280     0.0180 nh         1 9KO      -0.762300
     41 N38         11.6140     1.9090     0.5520 n          1 9KO      -0.416800
     42 N44          2.3750    -0.4860     0.1040 nb         1 9KO      -0.259000
     43 O18         -5.6570     1.0440     0.4110 o          1 9KO      -0.567100
     44 O41         12.4450     4.0080     0.1320 o          1 9KO      -0.601100
     45 O48         -2.4410    -4.1400    -1.4750 o          1 9KO      -0.547000
     46 H1         -11.3440     0.5290     1.4070 ha         1 9KO       0.126000
     47 H2          -7.2290     3.0080     0.0970 ha         1 9KO       0.155000
     48 H3          -0.8450    -4.3160    -3.3210 h1         1 9KO       0.055033
     49 H4           0.7020    -3.4640    -3.4040 h1         1 9KO       0.055033
     50 H5           0.5240    -4.8710    -2.3150 h1         1 9KO       0.055033
     51 H6          -1.5510    -4.6020     1.5700 hc         1 9KO       0.045700
     52 H7          -2.7250    -5.5440     2.4830 hc         1 9KO       0.045700
     53 H8          -2.6410    -5.7210     0.7270 hc         1 9KO       0.045700
     54 H9          -5.1330    -5.0240     2.4250 ha         1 9KO       0.117000
     55 H10         -6.8560    -3.2630     2.2720 ha         1 9KO       0.111000
     56 H11         -9.1860    -0.6420     1.4050 ha         1 9KO       0.119000
     57 H12        -11.5020     2.9100     0.7690 ha         1 9KO       0.133000
     58 H13         -4.0950    -0.7660     0.0840 ha         1 9KO       0.155000
     59 H14          4.6940    -0.5690     1.2020 ha         1 9KO       0.151000
     60 H15          6.8840     0.4380     1.7660 ha         1 9KO       0.121000
     61 H16          6.1850    -1.1030    -2.8340 h4         1 9KO       0.015100
     62 H17          9.2630     2.6790    -0.8090 h1         1 9KO       0.053950
     63 H18          9.3790     1.3830    -2.0060 h1         1 9KO       0.053950
     64 H19         11.5620     0.6770    -1.1660 h1         1 9KO       0.063200
     65 H20         11.5970     2.4040    -1.5350 h1         1 9KO       0.063200
     66 H21         13.2070     2.4340     2.7370 hc         1 9KO       0.060033
     67 H22         13.1910     4.2390     2.5700 hc         1 9KO       0.060033
     68 H23         11.7420     3.2720     3.0410 hc         1 9KO       0.060033
     69 H24         11.3440     1.0940     2.5310 h1         1 9KO       0.063200
     70 H25         11.4160    -0.0850     1.2250 h1         1 9KO       0.063200
     71 H26          9.1320     0.0570     2.0510 h1         1 9KO       0.053950
     72 H27          9.0920     1.8190     1.8520 h1         1 9KO       0.053950
     73 H28          0.8290     0.3160     1.2410 h4         1 9KO       0.022100
     74 H29         -1.4120    -0.9690     1.3930 h1         1 9KO       0.055200
     75 H30         -1.8090    -0.3760    -0.2320 h1         1 9KO       0.055200
     76 H31         -7.5460    -1.2790     1.3880 hn         1 9KO       0.154000
     77 H32          4.0480    -2.0570    -2.1310 hn         1 9KO       0.513000
     78 N28          3.9890    -1.4930    -1.2800 nu         1 9KO      -0.915900
     79 C24          0.0170    -3.9890    -2.7260 c3         1 9KO       0.099300
     80 C01         -2.5740    -4.9950     1.5450 c3         1 9KO      -0.039800
@<TRIPOS>BOND
     1     1    12 ar  
     2     1    13 ar  
     3     1    46 1   
     4     2    14 1   
     5     2    32 1   
     6     2    33 1   
     7     2    34 1   
     8     3    11 ar  
     9     3    14 ar  
    10     3    47 1   
    11     4     6 ar  
    12     4    15 ar  
    13     4    36 1   
    14     5    36 1   
    15     5    37 1   
    16     5    45 2   
    17     6     7 ar  
    18     6    80 1   
    19     7     8 ar  
    20     7    54 1   
    21     8     9 ar  
    22     8    55 1   
    23     9    15 ar  
    24     9    35 1   
    25    10    11 1   
    26    10    35 1   
    27    10    43 2   
    28    11    12 ar  
    29    12    56 1   
    30    13    14 ar  
    31    13    57 1   
    32    15    58 1   
    33    16    30 ar  
    34    16    37 1   
    35    16    38 ar  
    36    17    38 ar  
    37    17    42 ar  
    38    17    78 1   
    39    18    19 ar  
    40    18    22 ar  
    41    18    78 1   
    42    19    20 ar  
    43    19    59 1   
    44    20    21 ar  
    45    20    60 1   
    46    21    39 ar  
    47    21    40 1   
    48    22    39 ar  
    49    22    61 1   
    50    23    24 1   
    51    23    40 1   
    52    23    62 1   
    53    23    63 1   
    54    24    41 1   
    55    24    64 1   
    56    24    65 1   
    57    25    26 1   
    58    25    41 1   
    59    25    44 2   
    60    26    66 1   
    61    26    67 1   
    62    26    68 1   
    63    27    28 1   
    64    27    41 1   
    65    27    69 1   
    66    27    70 1   
    67    28    40 1   
    68    28    71 1   
    69    28    72 1   
    70    29    30 ar  
    71    29    42 ar  
    72    29    73 1   
    73    30    31 1   
    74    31    36 1   
    75    31    74 1   
    76    31    75 1   
    77    35    76 1   
    78    37    79 1   
    79    48    79 1   
    80    49    79 1   
    81    50    79 1   
    82    51    80 1   
    83    52    80 1   
    84    53    80 1   
    85    77    78 1   
@<TRIPOS>SUBSTRUCTURE
     1 9KO         1 TEMP              0 ****  ****    0 ROOT
