@<TRIPOS>MOLECULE
9KP
   42    42     1     0     0
SMALL
No Charge or Current Charge


@<TRIPOS>ATOM
      1 C10         25.2830    20.3110    64.7620 ce         1 9KP       0.413600
      2 C11         24.4310    19.0780    65.2150 c          1 9KP       0.642700
      3 O13         23.2190    19.0600    65.0180 o          1 9KP      -0.717000
      4 C15         23.4450    21.9490    63.9770 cf         1 9KP      -0.113200
      5 C16         22.9200    23.1860    63.3450 ca         1 9KP      -0.022800
      6 C17         21.5760    23.6140    63.5420 ca         1 9KP      -0.107600
      7 C18         21.1120    24.7770    62.8860 ca         1 9KP      -0.112000
      8 C19         21.9590    25.5190    62.0520 ca         1 9KP      -0.161000
      9 C20         23.2820    25.1060    61.8590 ca         1 9KP      -0.156000
     10 C22         20.6150    22.8760    64.4480 c          1 9KP       0.717600
     11 N           33.0120    17.3590    62.2770 n8         1 9KP      -0.969200
     12 CA          31.9470    18.3780    61.9680 c3         1 9KP       0.017500
     13 C           32.4570    19.7920    61.4460 c          1 9KP       0.720000
     14 O           32.9660    20.5750    62.2410 o          1 9KP      -0.735000
     15 CB          30.9710    18.5060    63.1710 c3         1 9KP      -0.046400
     16 CG          29.7120    19.3550    62.8720 c3         1 9KP      -0.076400
     17 CD          28.7300    19.4250    64.0630 c3         1 9KP      -0.067400
     18 CE          27.4750    20.2700    63.7570 c3         1 9KP       0.110800
     19 NZ          26.5830    20.3030    64.9230 n2         1 9KP      -0.632900
     20 O12         24.9860    18.1200    65.7540 o          1 9KP      -0.717000
     21 C14         24.7480    21.5590    64.1410 ce         1 9KP      -0.329600
     22 C21         23.7570    23.9490    62.4970 ca         1 9KP      -0.127000
     23 O23         20.9190    22.7290    65.6230 o          1 9KP      -0.718500
     24 O24         19.5490    22.5070    63.9770 o          1 9KP      -0.718500
     25 H1          22.6630    21.2800    64.3380 ha         1 9KP       0.252000
     26 H2          20.0860    25.1070    63.0360 ha         1 9KP       0.102000
     27 H3          21.5890    26.4130    61.5560 ha         1 9KP       0.064000
     28 H4          23.9400    25.6770    61.2080 ha         1 9KP       0.073000
     29 H8          31.3660    17.9390    61.1450 h1         1 9KP      -0.003300
     30 OXT         32.3740    20.0280    60.2470 o          1 9KP      -0.735000
     31 H10         30.6470    17.5040    63.4780 hc         1 9KP       0.019700
     32 H11         31.5020    18.9410    64.0280 hc         1 9KP       0.019700
     33 H12         30.0110    20.3750    62.6000 hc         1 9KP       0.041700
     34 H13         29.1920    18.9320    62.0030 hc         1 9KP       0.041700
     35 H14         28.4220    18.4070    64.3350 hc         1 9KP       0.030700
     36 H15         29.2490    19.8490    64.9320 hc         1 9KP       0.030700
     37 H16         27.7880    21.2880    63.4910 h1         1 9KP       0.016200
     38 H17         26.9610    19.8410    62.8860 h1         1 9KP       0.016200
     39 H19         25.5160    22.2510    63.8060 ha         1 9KP       0.135000
     40 H20         24.7810    23.6430    62.3080 ha         1 9KP       0.101000
     41 H           32.5670    16.4620    62.5010 hn         1 9KP       0.351000
     42 H7          33.5510    17.1670    61.4250 hn         1 9KP       0.351000
@<TRIPOS>BOND
     1     1     2 1   
     2     1    19 2   
     3     1    21 1   
     4     2     3 1   
     5     2    20 1   
     6     4     5 1   
     7     4    21 2   
     8     4    25 1   
     9     5     6 ar  
    10     5    22 ar  
    11     6     7 ar  
    12     6    10 1   
    13     7     8 ar  
    14     7    26 1   
    15     8     9 ar  
    16     8    27 1   
    17     9    22 ar  
    18     9    28 1   
    19    10    23 1   
    20    10    24 1   
    21    11    12 1   
    22    11    41 1   
    23    11    42 1   
    24    12    13 1   
    25    12    15 1   
    26    12    29 1   
    27    13    14 1   
    28    13    30 1   
    29    15    16 1   
    30    15    31 1   
    31    15    32 1   
    32    16    17 1   
    33    16    33 1   
    34    16    34 1   
    35    17    18 1   
    36    17    35 1   
    37    17    36 1   
    38    18    19 1   
    39    18    37 1   
    40    18    38 1   
    41    21    39 1   
    42    22    40 1   
@<TRIPOS>SUBSTRUCTURE
     1 9KP         1 TEMP              0 ****  ****    0 ROOT
