@<TRIPOS>MOLECULE
9KP
   42    42     1     0     0
SMALL
abcg2


@<TRIPOS>ATOM
      1 C10         25.1830    20.1480    64.9380 ce         1 9KP       0.413600
      2 C11         24.2800    19.6720    66.0810 c          1 9KP       0.642700
      3 O13         23.1720    19.2270    65.7280 o          1 9KP      -0.717000
      4 C15         23.6220    21.9690    64.3000 cf         1 9KP      -0.113200
      5 C16         23.1970    23.1200    63.4960 ca         1 9KP      -0.022800
      6 C17         21.8380    23.4730    63.3870 ca         1 9KP      -0.107600
      7 C18         21.4850    24.5230    62.5390 ca         1 9KP      -0.112000
      8 C19         22.4370    25.2590    61.8520 ca         1 9KP      -0.161000
      9 C20         23.7800    24.9280    61.9780 ca         1 9KP      -0.156000
     10 C22         20.7030    22.7790    64.1420 c          1 9KP       0.717600
     11 N           32.9340    17.8320    62.0720 n8         1 9KP      -0.969200
     12 CA          31.7840    18.6860    61.7850 c3         1 9KP       0.017500
     13 C           32.2150    20.1610    61.5950 c          1 9KP       0.720000
     14 O           33.0280    20.6270    62.4190 o          1 9KP      -0.735000
     15 CB          30.7920    18.5640    62.9430 c3         1 9KP      -0.046400
     16 CG          29.4910    19.3340    62.7560 c3         1 9KP      -0.076400
     17 CD          28.4790    19.0350    63.8550 c3         1 9KP      -0.067400
     18 CE          27.1970    19.8420    63.7150 c3         1 9KP       0.110800
     19 NZ          26.2740    19.5060    64.7810 n2         1 9KP      -0.632900
     20 O12         24.7460    19.7530    67.2290 o          1 9KP      -0.717000
     21 C14         24.7450    21.2640    64.0940 ce         1 9KP      -0.329600
     22 C21         24.1460    23.8650    62.7840 ca         1 9KP      -0.127000
     23 O23         20.8850    22.5510    65.3530 o          1 9KP      -0.718500
     24 O24         19.6780    22.5410    63.4770 o          1 9KP      -0.718500
     25 H1          22.9480    21.6760    65.0910 ha         1 9KP       0.252000
     26 H2          20.4390    24.7780    62.4270 ha         1 9KP       0.102000
     27 H3          22.1340    26.0850    61.2210 ha         1 9KP       0.064000
     28 H4          24.5380    25.4960    61.4550 ha         1 9KP       0.073000
     29 H8          31.2580    18.3760    60.8690 h1         1 9KP      -0.003300
     30 OXT         31.6880    20.7710    60.6410 o          1 9KP      -0.735000
     31 H10         30.5550    17.5030    63.0840 hc         1 9KP       0.019700
     32 H11         31.2850    18.8900    63.8650 hc         1 9KP       0.019700
     33 H12         29.6910    20.4100    62.7350 hc         1 9KP       0.041700
     34 H13         29.0550    19.0880    61.7820 hc         1 9KP       0.041700
     35 H14         28.2350    17.9680    63.8490 hc         1 9KP       0.030700
     36 H15         28.9240    19.2440    64.8330 hc         1 9KP       0.030700
     37 H16         27.4510    20.9100    63.7180 h1         1 9KP       0.016200
     38 H17         26.7530    19.6400    62.7310 h1         1 9KP       0.016200
     39 H19         25.3910    21.5310    63.2650 ha         1 9KP       0.135000
     40 H20         25.1970    23.6200    62.8810 ha         1 9KP       0.101000
     41 H           32.6260    16.8660    62.0800 hn         1 9KP       0.351000
     42 H7          33.6010    17.8940    61.3120 hn         1 9KP       0.351000
@<TRIPOS>BOND
     1     1     2 1   
     2     1    19 2   
     3     1    21 1   
     4     2     3 1   
     5     2    20 1   
     6     4     5 1   
     7     4    21 2   
     8     4    25 1   
     9     5     6 ar  
    10     5    22 ar  
    11     6     7 ar  
    12     6    10 1   
    13     7     8 ar  
    14     7    26 1   
    15     8     9 ar  
    16     8    27 1   
    17     9    22 ar  
    18     9    28 1   
    19    10    23 1   
    20    10    24 1   
    21    11    12 1   
    22    11    41 1   
    23    11    42 1   
    24    12    13 1   
    25    12    15 1   
    26    12    29 1   
    27    13    14 1   
    28    13    30 1   
    29    15    16 1   
    30    15    31 1   
    31    15    32 1   
    32    16    17 1   
    33    16    33 1   
    34    16    34 1   
    35    17    18 1   
    36    17    35 1   
    37    17    36 1   
    38    18    19 1   
    39    18    37 1   
    40    18    38 1   
    41    21    39 1   
    42    22    40 1   
@<TRIPOS>SUBSTRUCTURE
     1 9KP         1 TEMP              0 ****  ****    0 ROOT
