@<TRIPOS>MOLECULE
9KQ
   32    35     1     0     0
SMALL
No Charge or Current Charge


@<TRIPOS>ATOM
      1 N1          -0.2020     0.7020     0.0170 nb         1 9KQ      -0.208000
      2 C2          -1.1220    -0.2820     0.0300 cp         1 9KQ       0.230500
      3 N3          -0.8270    -1.5960    -0.0030 nb         1 9KQ      -0.173000
      4 C4           0.4670    -1.9650    -0.0590 ca         1 9KQ       0.047000
      5 C5           1.4920    -0.9860    -0.0800 ca         1 9KQ      -0.145000
      6 C6           1.1060     0.3830    -0.0340 ca         1 9KQ       0.251500
      7 CAA          0.8100    -3.3290    -0.1000 ca         1 9KQ      -0.091000
      8 CAB          2.1540    -3.7290    -0.1670 ca         1 9KQ      -0.078000
      9 CAC          3.1700    -2.7630    -0.1970 ca         1 9KQ      -0.107000
     10 CAD          2.8460    -1.3980    -0.1560 ca         1 9KQ      -0.074000
     11 CAK         -3.6140    -0.8620     0.1010 ca         1 9KQ      -0.062000
     12 CAL         -4.9690    -0.4910     0.1530 ca         1 9KQ      -0.126500
     13 CAM         -5.3290     0.8640     0.1930 ca         1 9KQ      -0.084000
     14 CAN         -4.3300     1.8490     0.1810 ca         1 9KQ      -0.126500
     15 CAO         -2.9740     1.4820     0.1280 ca         1 9KQ      -0.062000
     16 CAP         -2.5780     0.1140     0.0870 cp         1 9KQ      -0.162500
     17 CAQ          2.1680     2.3790    -0.9330 cc         1 9KQ       0.399900
     18 NAQ          2.0860     1.3620    -0.0250 na         1 9KQ      -0.406500
     19 CAR          2.8440     1.6850     1.0640 cc         1 9KQ       0.399900
     20 NAS          3.4660     2.8230     0.7860 nd         1 9KQ      -0.353500
     21 NAT          3.0440     3.2560    -0.4610 nd         1 9KQ      -0.353500
     22 HAA          0.0270    -4.0840    -0.0820 ha         1 9KQ       0.140000
     23 HAB          2.4060    -4.7870    -0.1990 ha         1 9KQ       0.124000
     24 HAC          4.2120    -3.0730    -0.2540 ha         1 9KQ       0.125000
     25 HAD          3.6570    -0.6740    -0.1910 ha         1 9KQ       0.129000
     26 HAL         -5.7410    -1.2570     0.1630 ha         1 9KQ       0.117500
     27 HAM         -6.3780     1.1500     0.2340 ha         1 9KQ       0.115000
     28 HAN         -4.6060     2.9010     0.2120 ha         1 9KQ       0.117500
     29 HAO         -2.2300     2.2750     0.1210 ha         1 9KQ       0.133000
     30 HAQ          1.6090     2.4220    -1.8610 h5         1 9KQ       0.074100
     31 HAR          2.9040     1.0910     1.9690 h5         1 9KQ       0.074100
     32 HAK         -3.3750    -1.9240     0.0710 ha         1 9KQ       0.133000
@<TRIPOS>BOND
     1     1     2 ar  
     2     1     6 ar  
     3     2     3 ar  
     4     2    16 1   
     5     3     4 ar  
     6     4     5 ar  
     7     4     7 ar  
     8     5     6 ar  
     9     5    10 ar  
    10     6    18 1   
    11     7     8 ar  
    12     7    22 1   
    13     8     9 ar  
    14     8    23 1   
    15     9    10 ar  
    16     9    24 1   
    17    10    25 1   
    18    11    12 ar  
    19    11    16 ar  
    20    11    32 1   
    21    12    13 ar  
    22    12    26 1   
    23    13    14 ar  
    24    13    27 1   
    25    14    15 ar  
    26    14    28 1   
    27    15    16 ar  
    28    15    29 1   
    29    17    18 1   
    30    17    21 2   
    31    17    30 1   
    32    18    19 1   
    33    19    20 2   
    34    19    31 1   
    35    20    21 1   
@<TRIPOS>SUBSTRUCTURE
     1 9KQ         1 TEMP              0 ****  ****    0 ROOT
