@<TRIPOS>MOLECULE
9KQ
   32    35     1     0     0
SMALL
bcc


@<TRIPOS>ATOM
      1 N1          -0.2070     0.6670     0.0590 nb         1 9KQ      -0.734000
      2 C2          -1.1290    -0.3240     0.0710 cp         1 9KQ       0.756500
      3 N3          -0.8450    -1.5970     0.1000 nb         1 9KQ      -0.699000
      4 C4           0.4530    -1.9620     0.0460 ca         1 9KQ       0.440600
      5 C5           1.4940    -1.0050    -0.0300 ca         1 9KQ      -0.275600
      6 C6           1.0440     0.3370     0.0290 ca         1 9KQ       0.579800
      7 CAA          0.7800    -3.3350     0.0380 ca         1 9KQ      -0.174300
      8 CAB          2.0870    -3.7240    -0.0780 ca         1 9KQ      -0.096000
      9 CAC          3.1160    -2.7690    -0.2050 ca         1 9KQ      -0.125000
     10 CAD          2.8300    -1.4310    -0.1830 ca         1 9KQ      -0.092000
     11 CAK         -3.5590    -0.8680     0.0880 ca         1 9KQ      -0.080000
     12 CAL         -4.8890    -0.4810     0.0860 ca         1 9KQ      -0.144500
     13 CAM         -5.2260     0.8680     0.0690 ca         1 9KQ      -0.102000
     14 CAN         -4.2220     1.8270     0.0530 ca         1 9KQ      -0.144500
     15 CAO         -2.8900     1.4430     0.0550 ca         1 9KQ      -0.080000
     16 CAP         -2.5450     0.0910     0.0730 cp         1 9KQ      -0.162500
     17 CAQ          1.7840     2.6080    -0.5820 cc         1 9KQ       0.399900
     18 NAQ          1.9500     1.4110     0.0480 na         1 9KQ      -0.406500
     19 CAR          3.0980     1.5630     0.7680 cc         1 9KQ       0.399900
     20 NAS          3.5870     2.7460     0.5760 nd         1 9KQ      -0.353500
     21 NAT          2.7620     3.4020    -0.2880 nd         1 9KQ      -0.353500
     22 HAA         -0.0200    -4.0590     0.1100 ha         1 9KQ       0.158000
     23 HAB          2.3350    -4.7770    -0.0910 ha         1 9KQ       0.142000
     24 HAC          4.1390    -3.0980    -0.3300 ha         1 9KQ       0.143000
     25 HAD          3.6310    -0.7160    -0.3090 ha         1 9KQ       0.147000
     26 HAL         -5.6660    -1.2340     0.0980 ha         1 9KQ       0.135500
     27 HAM         -6.2660     1.1670     0.0670 ha         1 9KQ       0.133000
     28 HAN         -4.4760     2.8790     0.0400 ha         1 9KQ       0.135500
     29 HAO         -2.1140     2.1960     0.0440 ha         1 9KQ       0.151000
     30 HAQ          0.9590     2.8200    -1.2420 h5         1 9KQ       0.074100
     31 HAR          3.4990     0.8100     1.4270 h5         1 9KQ       0.074100
     32 HAK         -3.3030    -1.9180     0.1010 ha         1 9KQ       0.151000
@<TRIPOS>BOND
     1     1     2 ar  
     2     1     6 ar  
     3     2     3 ar  
     4     2    16 1   
     5     3     4 ar  
     6     4     5 ar  
     7     4     7 ar  
     8     5     6 ar  
     9     5    10 ar  
    10     6    18 1   
    11     7     8 ar  
    12     7    22 1   
    13     8     9 ar  
    14     8    23 1   
    15     9    10 ar  
    16     9    24 1   
    17    10    25 1   
    18    11    12 ar  
    19    11    16 ar  
    20    11    32 1   
    21    12    13 ar  
    22    12    26 1   
    23    13    14 ar  
    24    13    27 1   
    25    14    15 ar  
    26    14    28 1   
    27    15    16 ar  
    28    15    29 1   
    29    17    18 1   
    30    17    21 2   
    31    17    30 1   
    32    18    19 1   
    33    19    20 2   
    34    19    31 1   
    35    20    21 1   
@<TRIPOS>SUBSTRUCTURE
     1 9KQ         1 TEMP              0 ****  ****    0 ROOT
