@<TRIPOS>MOLECULE
9KR
   70    72     1     0     0
SMALL
bcc


@<TRIPOS>ATOM
      1 O2           6.7820     1.2150     1.5820 o          1 9KR      -0.533100
      2 C23          6.9320     0.9120     0.4140 c          1 9KR       0.571300
      3 C24          8.1540     1.2580    -0.3430 ce         1 9KR      -0.281200
      4 C25          9.1800     1.9100     0.2090 c2         1 9KR      -0.079200
      5 C26         10.4320     2.2840    -0.4980 c3         1 9KR      -0.074900
      6 C22          5.8900     0.1490    -0.3620 c3         1 9KR      -0.175400
      7 C20          4.6180    -0.1590     0.4100 c3         1 9KR      -0.068400
      8 C18          3.5070    -0.7900    -0.4440 c3         1 9KR      -0.049700
      9 C19          3.9610    -2.1320    -1.0100 c3         1 9KR      -0.087100
     10 C16          2.2200    -0.8860     0.3910 c5         1 9KR      -0.053700
     11 C15          1.7490     0.5100     0.8820 c5         1 9KR      -0.078400
     12 C14          0.2100     0.4810     0.9400 c5         1 9KR      -0.071400
     13 C9          -0.1300    -0.9850     0.7310 c5         1 9KR      -0.035500
     14 C10          0.9520    -1.4920    -0.2570 c5         1 9KR      -0.036000
     15 C17          0.7340    -0.9110    -1.6570 c3         1 9KR      -0.079100
     16 C11          0.8650    -3.0200    -0.2830 c6         1 9KR      -0.062400
     17 C12         -0.5360    -3.4950    -0.6670 c6         1 9KR      -0.071400
     18 C13         -1.6320    -2.8950     0.2200 c6         1 9KR      -0.041200
     19 C8          -1.5120    -1.3990     0.3300 c2         1 9KR      -0.080400
     20 C7          -2.4980    -0.5160     0.1040 ce         1 9KR      -0.140000
     21 C6          -3.8580    -0.8230    -0.3010 ce         1 9KR      -0.111000
     22 C5          -4.8380     0.0610    -0.5410 c2         1 9KR      -0.106400
     23 C           -6.2060    -0.3910    -0.9650 c6         1 9KR      -0.032200
     24 C4          -4.7100     1.5520    -0.4220 c6         1 9KR      -0.032200
     25 C3          -5.7730     2.1150     0.5280 c6         1 9KR       0.188800
     26 O           -5.6240     3.5110     0.5640 oh         1 9KR      -0.591800
     27 C2          -7.1360     1.6590     0.0700 c2         1 9KR      -0.199400
     28 C21         -8.1190     2.4860    -0.2700 c2         1 9KR      -0.198000
     29 C1          -7.2870     0.1620    -0.0370 c6         1 9KR       0.188800
     30 O1          -7.1320    -0.4660     1.2200 oh         1 9KR      -0.591800
     31 H1           8.1940     0.9580    -1.3850 ha         1 9KR       0.129000
     32 H3           9.1120     2.1960     1.2550 ha         1 9KR       0.138000
     33 H5          10.4220     1.9860    -1.5450 hc         1 9KR       0.048700
     34 H6          10.5930     3.3630    -0.4430 hc         1 9KR       0.048700
     35 H7          11.2950     1.8220    -0.0130 hc         1 9KR       0.048700
     36 H8           5.6620     0.7220    -1.2700 hc         1 9KR       0.060200
     37 H9           6.3780    -0.7610    -0.7280 hc         1 9KR       0.060200
     38 H10          4.8430    -0.8240     1.2500 hc         1 9KR       0.052700
     39 H11          4.2530     0.7710     0.8500 hc         1 9KR       0.052700
     40 H12          3.3140    -0.1070    -1.2820 hc         1 9KR       0.045700
     41 H13          4.0730    -2.8770    -0.2180 hc         1 9KR       0.031700
     42 H14          3.2590    -2.5290    -1.7420 hc         1 9KR       0.031700
     43 H15          4.9220    -2.0510    -1.5190 hc         1 9KR       0.031700
     44 H16          2.4530    -1.5030     1.2710 hc         1 9KR       0.046700
     45 H17          2.1800     0.7480     1.8550 hc         1 9KR       0.043200
     46 H18          2.0920     1.2890     0.1960 hc         1 9KR       0.043200
     47 H19         -0.1830     0.8630     1.8840 hc         1 9KR       0.044700
     48 H20         -0.2140     1.1030     0.1490 hc         1 9KR       0.044700
     49 H21          0.0860    -1.5030     1.6790 hc         1 9KR       0.053700
     50 H22          0.9020     0.1670    -1.6860 hc         1 9KR       0.034033
     51 H23          1.4170    -1.3640    -2.3780 hc         1 9KR       0.034033
     52 H24         -0.2790    -1.0860    -2.0200 hc         1 9KR       0.034033
     53 H25          1.5880    -3.4540    -0.9750 hc         1 9KR       0.040200
     54 H26          1.1190    -3.4040     0.7130 hc         1 9KR       0.040200
     55 H27         -0.7370    -3.2440    -1.7120 hc         1 9KR       0.039700
     56 H28         -0.5840    -4.5850    -0.6040 hc         1 9KR       0.039700
     57 H29         -2.6110    -3.2070    -0.1420 hc         1 9KR       0.046700
     58 H30         -1.5270    -3.3150     1.2280 hc         1 9KR       0.046700
     59 H31         -2.2630     0.5330     0.2430 ha         1 9KR       0.123000
     60 H32         -4.1080    -1.8710    -0.4350 ha         1 9KR       0.120000
     61 H33         -6.4230    -0.0200    -1.9730 hc         1 9KR       0.058200
     62 H34         -6.2710    -1.4800    -1.0030 hc         1 9KR       0.058200
     63 H35         -3.7230     1.8590    -0.0750 hc         1 9KR       0.058200
     64 H36         -4.8630     2.0050    -1.4100 hc         1 9KR       0.058200
     65 H37         -5.5860     1.6840     1.5220 h1         1 9KR       0.042200
     66 H38         -6.1620     3.8580     1.2840 ho         1 9KR       0.402500
     67 H39         -9.0740     2.1050    -0.6110 ha         1 9KR       0.117500
     68 H40         -8.0160     3.5630    -0.2340 ha         1 9KR       0.117500
     69 H41         -8.2710    -0.0670    -0.4680 h1         1 9KR       0.042200
     70 H42         -7.8110    -0.1210     1.8090 ho         1 9KR       0.402500
@<TRIPOS>BOND
     1     1     2 2   
     2     2     3 1   
     3     2     6 1   
     4     3     4 2   
     5     3    31 1   
     6     4     5 1   
     7     4    32 1   
     8     5    33 1   
     9     5    34 1   
    10     5    35 1   
    11     6     7 1   
    12     6    36 1   
    13     6    37 1   
    14     7     8 1   
    15     7    38 1   
    16     7    39 1   
    17     8     9 1   
    18     8    10 1   
    19     8    40 1   
    20     9    41 1   
    21     9    42 1   
    22     9    43 1   
    23    10    11 1   
    24    10    14 1   
    25    10    44 1   
    26    11    12 1   
    27    11    45 1   
    28    11    46 1   
    29    12    13 1   
    30    12    47 1   
    31    12    48 1   
    32    13    14 1   
    33    13    19 1   
    34    13    49 1   
    35    14    15 1   
    36    14    16 1   
    37    15    50 1   
    38    15    51 1   
    39    15    52 1   
    40    16    17 1   
    41    16    53 1   
    42    16    54 1   
    43    17    18 1   
    44    17    55 1   
    45    17    56 1   
    46    18    19 1   
    47    18    57 1   
    48    18    58 1   
    49    19    20 2   
    50    20    21 1   
    51    20    59 1   
    52    21    22 2   
    53    21    60 1   
    54    22    23 1   
    55    22    24 1   
    56    23    29 1   
    57    23    61 1   
    58    23    62 1   
    59    24    25 1   
    60    24    63 1   
    61    24    64 1   
    62    25    26 1   
    63    25    27 1   
    64    25    65 1   
    65    26    66 1   
    66    27    28 2   
    67    27    29 1   
    68    28    67 1   
    69    28    68 1   
    70    29    30 1   
    71    29    69 1   
    72    30    70 1   
@<TRIPOS>SUBSTRUCTURE
     1 9KR         1 TEMP              0 ****  ****    0 ROOT
