@<TRIPOS>MOLECULE
9KR
   70    72     1     0     0
SMALL
No Charge or Current Charge


@<TRIPOS>ATOM
      1 O2           8.0220    -0.2630     1.1870 o          1 9KR      -0.533100
      2 C23          7.3120     0.1940     0.3010 c          1 9KR       0.571300
      3 C24          7.3540     1.6400    -0.0720 ce         1 9KR      -0.331200
      4 C25          8.1560     2.5570     0.5190 c2         1 9KR      -0.129200
      5 C26          8.2050     4.0240     0.1570 c3         1 9KR      -0.074900
      6 C22          6.3210    -0.6940    -0.4620 c3         1 9KR      -0.175400
      7 C20          4.9600    -0.7740     0.2810 c3         1 9KR      -0.068400
      8 C18          3.7830    -1.4160    -0.5230 c3         1 9KR      -0.049700
      9 C19          4.0980    -2.8960    -0.8620 c3         1 9KR      -0.087100
     10 C16          2.4050    -1.2330     0.2630 c5         1 9KR      -0.053700
     11 C15          2.0280     0.2860     0.4690 c5         1 9KR      -0.078400
     12 C14          0.4690     0.3630     0.4740 c5         1 9KR      -0.071400
     13 C9           0.0700    -1.1290     0.6200 c5         1 9KR      -0.035500
     14 C10          1.0600    -1.8260    -0.3780 c5         1 9KR      -0.036000
     15 C17          0.8190    -1.4530    -1.9060 c3         1 9KR      -0.079100
     16 C11          0.8730    -3.3720    -0.2160 c6         1 9KR      -0.062400
     17 C12         -0.5780    -3.8300    -0.5320 c6         1 9KR      -0.071400
     18 C13         -1.6500    -3.0450     0.2670 c6         1 9KR      -0.041200
     19 C8          -1.3840    -1.5350     0.2890 c2         1 9KR      -0.080400
     20 C7          -2.3220    -0.5560     0.1400 ce         1 9KR      -0.190000
     21 C6          -3.7660    -0.7740    -0.0870 ce         1 9KR      -0.161000
     22 C5          -4.6850     0.1650    -0.4320 c2         1 9KR      -0.106400
     23 C           -6.1600    -0.1950    -0.6110 c6         1 9KR      -0.032200
     24 C4          -4.4100     1.6480    -0.6980 c6         1 9KR      -0.032200
     25 C3          -5.2990     2.5450     0.1960 c6         1 9KR       0.212000
     26 O           -5.0470     3.9220    -0.0990 oh         1 9KR      -0.654000
     27 C2          -6.7870     2.1970     0.0260 c2         1 9KR      -0.199400
     28 C21         -7.7610     3.0860    -0.2660 c2         1 9KR      -0.298000
     29 C1          -7.1030     0.7150     0.2200 c6         1 9KR       0.212000
     30 O1          -7.0150     0.4050     1.6120 oh         1 9KR      -0.654000
     31 H1           6.6760     1.9410    -0.8700 ha         1 9KR       0.179000
     32 H3           8.8380     2.2690     1.3240 ha         1 9KR       0.188000
     33 H5           7.2280     4.4990     0.3020 hc         1 9KR       0.048700
     34 H6           8.9330     4.5610     0.7770 hc         1 9KR       0.048700
     35 H7           8.4940     4.1620    -0.8920 hc         1 9KR       0.048700
     36 H8           6.1320    -0.2550    -1.4480 hc         1 9KR       0.060200
     37 H9           6.7530    -1.6960    -0.5590 hc         1 9KR       0.060200
     38 H10          5.0960    -1.3190     1.2240 hc         1 9KR       0.052700
     39 H11          4.6860     0.2500     0.5600 hc         1 9KR       0.052700
     40 H12          3.7740    -0.8920    -1.5040 hc         1 9KR       0.045700
     41 H13          3.9850    -3.5360     0.0210 hc         1 9KR       0.031700
     42 H14          3.4360    -3.2570    -1.6540 hc         1 9KR       0.031700
     43 H15          5.1140    -3.0230    -1.2480 hc         1 9KR       0.031700
     44 H16          2.5680    -1.6970     1.2440 hc         1 9KR       0.046700
     45 H17          2.4450     0.6670     1.4090 hc         1 9KR       0.043200
     46 H18          2.4320     0.9190    -0.3290 hc         1 9KR       0.043200
     47 H19          0.0920     0.9760     1.3000 hc         1 9KR       0.044700
     48 H20          0.1010     0.8120    -0.4560 hc         1 9KR       0.044700
     49 H21          0.2730    -1.4490     1.6510 hc         1 9KR       0.053700
     50 H22          1.1180    -0.4240    -2.1320 hc         1 9KR       0.034033
     51 H23          1.4090    -2.1000    -2.5650 hc         1 9KR       0.034033
     52 H24         -0.2320    -1.5530    -2.2010 hc         1 9KR       0.034033
     53 H25          1.5520    -3.9310    -0.8670 hc         1 9KR       0.040200
     54 H26          1.1290    -3.6650     0.8120 hc         1 9KR       0.040200
     55 H27         -0.7760    -3.7250    -1.6070 hc         1 9KR       0.039700
     56 H28         -0.6780    -4.9030    -0.3190 hc         1 9KR       0.039700
     57 H29         -2.6320    -3.2870    -0.1540 hc         1 9KR       0.046700
     58 H30         -1.6620    -3.4100     1.3030 hc         1 9KR       0.046700
     59 H31         -2.0290     0.4840     0.2230 ha         1 9KR       0.173000
     60 H32         -4.1240    -1.7910     0.0600 ha         1 9KR       0.170000
     61 H33         -6.4190    -0.0940    -1.6740 hc         1 9KR       0.058200
     62 H34         -6.3440    -1.2470    -0.3560 hc         1 9KR       0.058200
     63 H35         -3.3600     1.9160    -0.5500 hc         1 9KR       0.058200
     64 H36         -4.6250     1.8640    -1.7540 hc         1 9KR       0.058200
     65 H37         -5.0210     2.3470     1.2430 h1         1 9KR       0.042200
     66 H38         -5.6180     4.4340     0.5120 ho         1 9KR       0.441500
     67 H39         -8.8010     2.7760    -0.3740 ha         1 9KR       0.167500
     68 H40         -7.5700     4.1480    -0.4200 ha         1 9KR       0.167500
     69 H41         -8.1310     0.5220    -0.1240 h1         1 9KR       0.042200
     70 H42         -7.5620     1.0790     2.0700 ho         1 9KR       0.441500
@<TRIPOS>BOND
     1     1     2 2   
     2     2     3 1   
     3     2     6 1   
     4     3     4 2   
     5     3    31 1   
     6     4     5 1   
     7     4    32 1   
     8     5    33 1   
     9     5    34 1   
    10     5    35 1   
    11     6     7 1   
    12     6    36 1   
    13     6    37 1   
    14     7     8 1   
    15     7    38 1   
    16     7    39 1   
    17     8     9 1   
    18     8    10 1   
    19     8    40 1   
    20     9    41 1   
    21     9    42 1   
    22     9    43 1   
    23    10    11 1   
    24    10    14 1   
    25    10    44 1   
    26    11    12 1   
    27    11    45 1   
    28    11    46 1   
    29    12    13 1   
    30    12    47 1   
    31    12    48 1   
    32    13    14 1   
    33    13    19 1   
    34    13    49 1   
    35    14    15 1   
    36    14    16 1   
    37    15    50 1   
    38    15    51 1   
    39    15    52 1   
    40    16    17 1   
    41    16    53 1   
    42    16    54 1   
    43    17    18 1   
    44    17    55 1   
    45    17    56 1   
    46    18    19 1   
    47    18    57 1   
    48    18    58 1   
    49    19    20 2   
    50    20    21 1   
    51    20    59 1   
    52    21    22 2   
    53    21    60 1   
    54    22    23 1   
    55    22    24 1   
    56    23    29 1   
    57    23    61 1   
    58    23    62 1   
    59    24    25 1   
    60    24    63 1   
    61    24    64 1   
    62    25    26 1   
    63    25    27 1   
    64    25    65 1   
    65    26    66 1   
    66    27    28 2   
    67    27    29 1   
    68    28    67 1   
    69    28    68 1   
    70    29    30 1   
    71    29    69 1   
    72    30    70 1   
@<TRIPOS>SUBSTRUCTURE
     1 9KR         1 TEMP              0 ****  ****    0 ROOT
