@<TRIPOS>MOLECULE
9KS
   20    20     1     0     0
SMALL
No Charge or Current Charge


@<TRIPOS>ATOM
      1 N1           1.2450     0.3540     0.1010 ns         1 9KS      -0.139000
      2 C4          -0.5220    -1.4030    -0.0880 ca         1 9KS      -0.105000
      3 C5          -1.8870    -1.7390    -0.1030 ca         1 9KS      -0.117000
      4 C6          -2.8630    -0.7420     0.0430 ca         1 9KS      -0.099000
      5 C7          -2.4750     0.5970     0.2060 ca         1 9KS      -0.176000
      6 C8          -1.1120     0.9390     0.2230 ca         1 9KS       0.081100
      7 C2           2.4410    -0.3420    -0.0110 c          1 9KS       0.607100
      8 O1           2.5310    -1.5540    -0.1680 o          1 9KS      -0.593100
      9 C3          -0.1200    -0.0560     0.0760 ca         1 9KS      -0.043000
     10 H1           1.3590     1.3520     0.2270 hn         1 9KS       0.166000
     11 H2           0.2040    -2.2020    -0.2040 ha         1 9KS       0.151000
     12 H3          -2.1880    -2.7770    -0.2300 ha         1 9KS       0.118000
     13 H4          -3.9190    -1.0070     0.0300 ha         1 9KS       0.115000
     14 H5          -3.2380     1.3640     0.3190 ha         1 9KS       0.112000
     15 H6           3.6150     1.3290    -0.6810 hc         1 9KS       0.062700
     16 H7           3.6480     1.1140     1.0110 hc         1 9KS       0.062700
     17 H8           4.6150    -0.0290    -0.0140 hc         1 9KS       0.062700
     18 H9          -1.5730     2.7880     0.4680 ho         1 9KS       0.472000
     19 O2          -0.7560     2.2490     0.3830 oh         1 9KS      -0.559100
     20 C1           3.6830     0.5410     0.0770 c3         1 9KS      -0.181100
@<TRIPOS>BOND
     1     1     7 1   
     2     1     9 1   
     3     1    10 1   
     4     2     3 ar  
     5     2     9 ar  
     6     2    11 1   
     7     3     4 ar  
     8     3    12 1   
     9     4     5 ar  
    10     4    13 1   
    11     5     6 ar  
    12     5    14 1   
    13     6     9 ar  
    14     6    19 1   
    15     7     8 2   
    16     7    20 1   
    17    15    20 1   
    18    16    20 1   
    19    17    20 1   
    20    18    19 1   
@<TRIPOS>SUBSTRUCTURE
     1 9KS         1 TEMP              0 ****  ****    0 ROOT
