@<TRIPOS>MOLECULE
9KS
   20    20     1     0     0
SMALL
bcc


@<TRIPOS>ATOM
      1 N1           1.2020     0.4100     0.1180 ns         1 9KS      -0.465100
      2 C4          -0.5010    -1.3870     0.0340 ca         1 9KS      -0.123000
      3 C5          -1.8460    -1.7390     0.0090 ca         1 9KS      -0.135000
      4 C6          -2.8270    -0.7620     0.0320 ca         1 9KS      -0.117000
      5 C7          -2.4620     0.5770     0.0800 ca         1 9KS      -0.194000
      6 C8          -1.1240     0.9370     0.1030 ca         1 9KS       0.081100
      7 C2           2.3570    -0.2960     0.0460 c          1 9KS       0.674100
      8 O1           2.4110    -1.5090    -0.0740 o          1 9KS      -0.593100
      9 C3          -0.1200    -0.0490     0.0810 ca         1 9KS       0.049600
     10 H1           1.3010     1.4090     0.2030 hn         1 9KS       0.332500
     11 H2           0.2490    -2.1590     0.0170 ha         1 9KS       0.169000
     12 H3          -2.1160    -2.7860    -0.0280 ha         1 9KS       0.136000
     13 H4          -3.8750    -1.0300     0.0140 ha         1 9KS       0.133000
     14 H5          -3.2220     1.3490     0.0980 ha         1 9KS       0.130000
     15 H6           3.4160     1.6140     0.2170 hc         1 9KS       0.062700
     16 H7           4.1880     0.2310     0.9990 hc         1 9KS       0.062700
     17 H8           4.2200     0.3730    -0.7500 hc         1 9KS       0.062700
     18 H9          -1.4590     2.8250     0.1860 ho         1 9KS       0.433000
     19 O2          -0.7090     2.2220     0.1480 oh         1 9KS      -0.520100
     20 C1           3.6050     0.5450     0.1330 c3         1 9KS      -0.181100
@<TRIPOS>BOND
     1     1     7 1   
     2     1     9 1   
     3     1    10 1   
     4     2     3 ar  
     5     2     9 ar  
     6     2    11 1   
     7     3     4 ar  
     8     3    12 1   
     9     4     5 ar  
    10     4    13 1   
    11     5     6 ar  
    12     5    14 1   
    13     6     9 ar  
    14     6    19 1   
    15     7     8 2   
    16     7    20 1   
    17    15    20 1   
    18    16    20 1   
    19    17    20 1   
    20    18    19 1   
@<TRIPOS>SUBSTRUCTURE
     1 9KS         1 TEMP              0 ****  ****    0 ROOT
