@<TRIPOS>MOLECULE
9KT
   24    25     1     0     0
SMALL
abcg2


@<TRIPOS>ATOM
      1 C2           0.7350     0.6900    -0.0020 ca         1 9KT       0.035600
      2 C3           1.9470     1.3770    -0.0120 ca         1 9KT      -0.124000
      3 C4           3.1520     0.6950    -0.0140 ca         1 9KT      -0.104000
      4 C5           3.1590    -0.6900    -0.0040 ca         1 9KT      -0.104000
      5 C6           1.9620    -1.3860     0.0080 ca         1 9KT      -0.124000
      6 C7           0.7430    -0.7120     0.0080 ca         1 9KT       0.035600
      7 C8          -1.6620    -0.7840     0.0230 c          1 9KT       0.488000
      8 C9          -1.6710     0.7360     0.0120 c          1 9KT       0.488000
      9 N1          -0.4780     1.3780     0.0000 n          1 9KT      -0.291000
     10 N2          -0.4630    -1.4130     0.0200 n          1 9KT      -0.291000
     11 O1          -2.7310    -1.3580     0.0340 o          1 9KT      -0.489500
     12 O2          -2.7460     1.2980     0.0130 o          1 9KT      -0.489500
     13 H1           1.9670     2.4560    -0.0190 ha         1 9KT       0.122500
     14 H2           4.0780     1.2530    -0.0220 ha         1 9KT       0.120500
     15 H3           4.0910    -1.2380    -0.0050 ha         1 9KT       0.120500
     16 H4           1.9940    -2.4650     0.0190 ha         1 9KT       0.122500
     17 H5          -1.4500    -3.2440     0.0340 h1         1 9KT       0.056033
     18 H6           0.0760    -3.2440    -0.8550 h1         1 9KT       0.056033
     19 H7           0.0780    -3.2320     0.9200 h1         1 9KT       0.056033
     20 H8          -1.4850     3.1980    -0.0140 h1         1 9KT       0.056033
     21 H9           0.0430     3.2160     0.8720 h1         1 9KT       0.056033
     22 H10          0.0400     3.2010    -0.9030 h1         1 9KT       0.056033
     23 C10         -0.4340    -2.8680     0.0300 c3         1 9KT       0.074300
     24 C1          -0.4660     2.8330    -0.0120 c3         1 9KT       0.074300
@<TRIPOS>BOND
     1     1     2 ar  
     2     1     6 ar  
     3     1     9 1   
     4     2     3 ar  
     5     2    13 1   
     6     3     4 ar  
     7     3    14 1   
     8     4     5 ar  
     9     4    15 1   
    10     5     6 ar  
    11     5    16 1   
    12     6    10 1   
    13     7     8 1   
    14     7    10 1   
    15     7    11 2   
    16     8     9 1   
    17     8    12 2   
    18     9    24 1   
    19    10    23 1   
    20    17    23 1   
    21    18    23 1   
    22    19    23 1   
    23    20    24 1   
    24    21    24 1   
    25    22    24 1   
@<TRIPOS>SUBSTRUCTURE
     1 9KT         1 TEMP              0 ****  ****    0 ROOT
