@<TRIPOS>MOLECULE
9KT
   24    25     1     0     0
SMALL
No Charge or Current Charge


@<TRIPOS>ATOM
      1 C2           0.7560     0.7010    -0.0810 ca         1 9KT       0.035600
      2 C3           1.9890     1.3930     0.0080 ca         1 9KT      -0.124000
      3 C4           3.2080     0.7020     0.0400 ca         1 9KT      -0.104000
      4 C5           3.2160    -0.6960     0.0510 ca         1 9KT      -0.104000
      5 C6           2.0040    -1.4010     0.0300 ca         1 9KT      -0.124000
      6 C7           0.7630    -0.7230    -0.0700 ca         1 9KT       0.035600
      7 C8          -1.7050    -0.8160     0.3130 c          1 9KT       0.488000
      8 C9          -1.7130     0.7710     0.3010 c          1 9KT       0.488000
      9 N1          -0.4890     1.4290     0.0350 n          1 9KT      -0.291000
     10 N2          -0.4730    -1.4630     0.0570 n          1 9KT      -0.291000
     11 O1          -2.7400    -1.4510     0.5140 o          1 9KT      -0.489500
     12 O2          -2.7560     1.3980     0.4920 o          1 9KT      -0.489500
     13 H1           2.0230     2.4770     0.0620 ha         1 9KT       0.122500
     14 H2           4.1460     1.2510     0.0910 ha         1 9KT       0.120500
     15 H3           4.1590    -1.2350     0.1090 ha         1 9KT       0.120500
     16 H4           2.0500    -2.4840     0.1000 ha         1 9KT       0.122500
     17 H5          -1.4790    -3.2940    -0.4420 h1         1 9KT       0.056033
     18 H6           0.1980    -3.1880    -0.9950 h1         1 9KT       0.056033
     19 H7          -0.1500    -3.4490     0.7410 h1         1 9KT       0.056033
     20 H8          -1.5150     3.2410    -0.4900 h1         1 9KT       0.056033
     21 H9          -0.1880     3.4270     0.6900 h1         1 9KT       0.056033
     22 H10          0.1630     3.1450    -1.0420 h1         1 9KT       0.056033
     23 C10         -0.4790    -2.9340    -0.1700 c3         1 9KT       0.074300
     24 C1          -0.5110     2.8950    -0.2130 c3         1 9KT       0.074300
@<TRIPOS>BOND
     1     1     2 ar  
     2     1     6 ar  
     3     1     9 1   
     4     2     3 ar  
     5     2    13 1   
     6     3     4 ar  
     7     3    14 1   
     8     4     5 ar  
     9     4    15 1   
    10     5     6 ar  
    11     5    16 1   
    12     6    10 1   
    13     7     8 1   
    14     7    10 1   
    15     7    11 2   
    16     8     9 1   
    17     8    12 2   
    18     9    24 1   
    19    10    23 1   
    20    17    23 1   
    21    18    23 1   
    22    19    23 1   
    23    20    24 1   
    24    21    24 1   
    25    22    24 1   
@<TRIPOS>SUBSTRUCTURE
     1 9KT         1 TEMP              0 ****  ****    0 ROOT
