@<TRIPOS>MOLECULE
9KU
   48    51     1     0     0
SMALL
No Charge or Current Charge


@<TRIPOS>ATOM
      1 C1          -4.3730     1.1540    -1.4330 c          1 9KU       0.499200
      2 C10          4.0270    -1.6770     1.0280 ca         1 9KU      -0.230000
      3 C11          5.3720    -1.6750     1.4330 ca         1 9KU      -0.066000
      4 C12          6.2550    -0.7060     0.9340 ca         1 9KU      -0.148000
      5 C13          5.7990     0.2670     0.0260 ca         1 9KU      -0.005000
      6 C14          4.4460     0.2720    -0.3880 ca         1 9KU      -0.056000
      7 C15          4.0090     1.2580    -1.3010 ca         1 9KU      -0.053000
      8 C16          4.9080     2.2210    -1.7910 ca         1 9KU      -0.131000
      9 C17          6.2500     2.2100    -1.3760 ca         1 9KU      -0.094000
     10 C18          6.6940     1.2340    -0.4690 ca         1 9KU      -0.124000
     11 C19         -1.0200    -3.4080     0.8560 c5         1 9KU       0.106000
     12 C2          -4.2100     1.9040    -0.1740 cc         1 9KU      -0.028100
     13 C20         -2.3430    -4.1780     0.6170 c5         1 9KU      -0.092400
     14 C21         -3.3640    -3.0220     0.4980 c5         1 9KU      -0.092400
     15 C3          -3.5530     1.3760     0.9500 cd         1 9KU       0.065400
     16 C4          -3.4020     2.1800     2.2450 c          1 9KU       0.735200
     17 C5          -3.1830    -0.6120    -0.3180 cc         1 9KU       0.396900
     18 C6          -2.6170    -2.0290    -0.4430 c5         1 9KU       0.096400
     19 C8           1.2580    -1.6450     0.1620 c3         1 9KU       0.080600
     20 C9           3.5550    -0.7060     0.1160 ca         1 9KU       0.176100
     21 N1          -3.0320     0.0570     0.8310 nd         1 9KU      -0.539300
     22 N2          -1.2060    -2.2240    -0.0110 n          1 9KU      -0.403800
     23 N3          -3.8330    -0.0760    -1.3940 ns         1 9KU      -0.382400
     24 O1          -4.9410     1.5850    -2.4280 o          1 9KU      -0.628000
     25 O2          -4.7740     3.1410    -0.2610 oh         1 9KU      -0.482100
     26 O3          -2.8160     1.6500     3.1840 o          1 9KU      -0.693000
     27 O4          -3.8500     3.3170     2.3510 o          1 9KU      -0.693000
     28 O5           2.2350    -0.6850    -0.3000 os         1 9KU      -0.304100
     29 O6          -0.3450    -0.5260    -1.2900 o          1 9KU      -0.565100
     30 H3           7.2940    -0.7130     1.2540 ha         1 9KU       0.107000
     31 H4           2.9740     1.2860    -1.6350 ha         1 9KU       0.148000
     32 H5           4.5640     2.9770    -2.4930 ha         1 9KU       0.115000
     33 H6           6.9440     2.9560    -1.7560 ha         1 9KU       0.104000
     34 H7           7.7340     1.2310    -0.1520 ha         1 9KU       0.104000
     35 H8          -0.9140    -3.1050     1.9070 h1         1 9KU       0.050700
     36 H9          -0.1480    -4.0120     0.5740 h1         1 9KU       0.050700
     37 H10         -2.2980    -4.7630    -0.3100 hc         1 9KU       0.046200
     38 H11         -2.5770    -4.8720     1.4320 hc         1 9KU       0.046200
     39 H12         -4.3260    -3.3450     0.0860 hc         1 9KU       0.067700
     40 H13         -3.5640    -2.5810     1.4830 hc         1 9KU       0.067700
     41 H14         -2.7130    -2.3650    -1.4850 h1         1 9KU       0.049700
     42 H15          1.1520    -1.5920     1.2530 h1         1 9KU       0.050200
     43 H16          1.5660    -2.6630    -0.1060 h1         1 9KU       0.050200
     44 H17         -3.9170    -0.6220    -2.2400 hn         1 9KU       0.306500
     45 H18         -5.1490     3.2020    -1.1700 ho         1 9KU       0.455000
     46 C7          -0.1440    -1.4030    -0.4540 c          1 9KU       0.621100
     47 H1           3.3690    -2.4400     1.4330 ha         1 9KU       0.112000
     48 H2           5.7300    -2.4250     2.1350 ha         1 9KU       0.102000
@<TRIPOS>BOND
     1     1    12 1   
     2     1    23 1   
     3     1    24 2   
     4     2     3 ar  
     5     2    20 ar  
     6     2    47 1   
     7     3     4 ar  
     8     3    48 1   
     9     4     5 ar  
    10     4    30 1   
    11     5     6 ar  
    12     5    10 ar  
    13     6     7 ar  
    14     6    20 ar  
    15     7     8 ar  
    16     7    31 1   
    17     8     9 ar  
    18     8    32 1   
    19     9    10 ar  
    20     9    33 1   
    21    10    34 1   
    22    11    13 1   
    23    11    22 1   
    24    11    35 1   
    25    11    36 1   
    26    12    15 2   
    27    12    25 1   
    28    13    14 1   
    29    13    37 1   
    30    13    38 1   
    31    14    18 1   
    32    14    39 1   
    33    14    40 1   
    34    15    16 1   
    35    15    21 1   
    36    16    26 1   
    37    16    27 1   
    38    17    18 1   
    39    17    21 2   
    40    17    23 1   
    41    18    22 1   
    42    18    41 1   
    43    19    28 1   
    44    19    42 1   
    45    19    43 1   
    46    19    46 1   
    47    20    28 1   
    48    22    46 1   
    49    23    44 1   
    50    25    45 1   
    51    29    46 2   
@<TRIPOS>SUBSTRUCTURE
     1 9KU         1 TEMP              0 ****  ****    0 ROOT
