@<TRIPOS>MOLECULE
9KU
   48    51     1     0     0
SMALL
bcc


@<TRIPOS>ATOM
      1 C1          -4.2400     1.1210    -1.3930 c          1 9KU       0.641700
      2 C10          3.9170    -1.7980     0.9260 ca         1 9KU      -0.248000
      3 C11          5.2730    -1.7220     1.3110 ca         1 9KU      -0.084000
      4 C12          6.0720    -0.6980     0.8940 ca         1 9KU      -0.166000
      5 C13          5.5420     0.3160     0.0570 ca         1 9KU      -0.005000
      6 C14          4.1840     0.2560    -0.3450 ca         1 9KU      -0.056000
      7 C15          3.6640     1.2740    -1.1780 ca         1 9KU      -0.071000
      8 C16          4.4620     2.3080    -1.5910 ca         1 9KU      -0.149000
      9 C17          5.8120     2.3710    -1.1940 ca         1 9KU      -0.112000
     10 C18          6.3370     1.3970    -0.3890 ca         1 9KU      -0.142000
     11 C19         -1.0630    -3.2750     1.0100 c5         1 9KU       0.106000
     12 C2          -3.8810     1.9000    -0.2280 cc         1 9KU      -0.028100
     13 C20         -2.3400    -4.0710     0.7840 c5         1 9KU      -0.092400
     14 C21         -3.3330    -3.0010     0.3480 c5         1 9KU      -0.092400
     15 C3          -3.1100     1.3460     0.7530 cd         1 9KU       0.065400
     16 C4          -2.6970     2.1000     2.0130 c          1 9KU       0.945800
     17 C5          -2.9380    -0.6260    -0.3950 cc         1 9KU       0.396900
     18 C6          -2.4890    -2.0580    -0.5250 c5         1 9KU       0.096400
     19 C8           1.2220    -1.7920     0.1400 c3         1 9KU       0.057400
     20 C9           3.3820    -0.8320     0.1120 ca         1 9KU       0.176100
     21 N1          -2.6600     0.0590     0.6540 nd         1 9KU      -0.539300
     22 N2          -1.1410    -2.2520    -0.0270 n          1 9KU      -0.470800
     23 N3          -3.7040    -0.1380    -1.4010 ns         1 9KU      -0.449400
     24 O1          -4.9500     1.5490    -2.2990 o          1 9KU      -0.703500
     25 O2          -4.3770     3.1460    -0.1850 oh         1 9KU      -0.443100
     26 O3          -2.6080     1.4140     3.0430 o          1 9KU      -0.798300
     27 O4          -2.4820     3.3180     1.8840 o          1 9KU      -0.798300
     28 O5           2.1080    -0.8110    -0.3190 os         1 9KU      -0.280900
     29 O6          -0.2660    -0.7040    -1.4010 o          1 9KU      -0.565100
     30 H3           7.1100    -0.6450     1.1960 ha         1 9KU       0.125000
     31 H4           2.6300     1.2380    -1.4910 ha         1 9KU       0.166000
     32 H5           4.0530     3.0840    -2.2250 ha         1 9KU       0.133000
     33 H6           6.4330     3.1920    -1.5280 ha         1 9KU       0.122000
     34 H7           7.3750     1.4420    -0.0800 ha         1 9KU       0.122000
     35 H8          -1.0500    -2.8210     2.0050 h1         1 9KU       0.050700
     36 H9          -0.1700    -3.8890     0.9020 h1         1 9KU       0.050700
     37 H10         -2.1890    -4.8040    -0.0110 hc         1 9KU       0.046200
     38 H11         -2.6580    -4.6030     1.6790 hc         1 9KU       0.046200
     39 H12         -4.1890    -3.3930    -0.1980 hc         1 9KU       0.067700
     40 H13         -3.7040    -2.4610     1.2210 hc         1 9KU       0.067700
     41 H14         -2.5490    -2.3620    -1.5770 h1         1 9KU       0.049700
     42 H15          1.1290    -1.7650     1.2330 h1         1 9KU       0.050200
     43 H16          1.5600    -2.8010    -0.1310 h1         1 9KU       0.050200
     44 H17         -3.8990    -0.7190    -2.2080 hn         1 9KU       0.306500
     45 H18         -4.9310     3.2690    -0.9690 ho         1 9KU       0.416000
     46 C7          -0.1250    -1.5210    -0.5070 c          1 9KU       0.688100
     47 H1           3.3240    -2.6270     1.2880 ha         1 9KU       0.130000
     48 H2           5.6730    -2.4990     1.9500 ha         1 9KU       0.120000
@<TRIPOS>BOND
     1     1    12 1   
     2     1    23 1   
     3     1    24 2   
     4     2     3 ar  
     5     2    20 ar  
     6     2    47 1   
     7     3     4 ar  
     8     3    48 1   
     9     4     5 ar  
    10     4    30 1   
    11     5     6 ar  
    12     5    10 ar  
    13     6     7 ar  
    14     6    20 ar  
    15     7     8 ar  
    16     7    31 1   
    17     8     9 ar  
    18     8    32 1   
    19     9    10 ar  
    20     9    33 1   
    21    10    34 1   
    22    11    13 1   
    23    11    22 1   
    24    11    35 1   
    25    11    36 1   
    26    12    15 2   
    27    12    25 1   
    28    13    14 1   
    29    13    37 1   
    30    13    38 1   
    31    14    18 1   
    32    14    39 1   
    33    14    40 1   
    34    15    16 1   
    35    15    21 1   
    36    16    26 1   
    37    16    27 1   
    38    17    18 1   
    39    17    21 2   
    40    17    23 1   
    41    18    22 1   
    42    18    41 1   
    43    19    28 1   
    44    19    42 1   
    45    19    43 1   
    46    19    46 1   
    47    20    28 1   
    48    22    46 1   
    49    23    44 1   
    50    25    45 1   
    51    29    46 2   
@<TRIPOS>SUBSTRUCTURE
     1 9KU         1 TEMP              0 ****  ****    0 ROOT
