@<TRIPOS>MOLECULE
9KV
   71    76     1     0     0
SMALL
No Charge or Current Charge


@<TRIPOS>ATOM
      1 N3          -2.7080    -1.8170    -1.3330 nc         1 9KV      -0.563100
      2 C4          -0.3530    -2.2280    -0.9360 cd         1 9KV      -0.258900
      3 C5           0.2670     1.6130     0.2270 c          1 9KV       0.588100
      4 C7          -0.8310     0.6420     0.7320 c3         1 9KV       0.012300
      5 C8          -2.8320     0.3690    -0.7300 ca         1 9KV      -0.080200
      6 C10         -3.5080    -0.6990    -1.2470 ca         1 9KV       0.075400
      7 C15          3.3070    -3.7980    -1.0280 ca         1 9KV      -0.008000
      8 C17          0.8670     4.0630     0.0240 c6         1 9KV       0.109700
      9 C20          4.3040    -2.8660    -0.6580 ca         1 9KV      -0.100000
     10 C21          3.7080    -5.1130    -1.3570 ca         1 9KV      -0.100000
     11 C22         -1.6940    -0.9640     2.5730 c6         1 9KV      -0.072400
     12 C24          0.6070     5.3040     0.9170 c6         1 9KV      -0.089900
     13 C26         -4.7760     1.7790    -1.0060 ca         1 9KV      -0.095000
     14 C28          5.0630    -5.4850    -1.3170 ca         1 9KV      -0.109500
     15 C1          -1.5220    -1.3740    -0.8670 cd         1 9KV       0.521400
     16 C16         -0.4450    -0.2510     1.9690 c6         1 9KV      -0.068700
     17 C18         -3.4320     1.6360    -0.6060 ca         1 9KV      -0.119000
     18 C19         -4.8470    -0.5810    -1.6490 ca         1 9KV      -0.046000
     19 C23          0.2750     0.5750     3.0780 c6         1 9KV      -0.072400
     20 C25          0.5940     4.4180    -1.4620 c6         1 9KV      -0.089900
     21 C27         -5.4840     0.6710    -1.5220 ca         1 9KV      -0.136000
     22 C30          0.6470    -0.3040     4.2980 c6         1 9KV      -0.073400
     23 C31         -1.3200    -1.8430     3.7910 c6         1 9KV      -0.073400
     24 C32          1.4520     5.6220    -1.9230 c6         1 9KV      -0.071400
     25 C33          1.4670     6.5130     0.4700 c6         1 9KV      -0.071400
     26 C35          1.2170     6.8560    -1.0190 c6         1 9KV      -0.077400
     27 C36         -0.5980    -1.0140     4.8790 c6         1 9KV      -0.075400
     28 N13          0.0120     2.9510     0.4500 ns         1 9KV      -0.498900
     29 N2          -1.5570    -0.0270    -0.3930 na         1 9KV      -0.163600
     30 C11         -0.4440    -3.5390    -1.3440 cc         1 9KV      -0.095000
     31 C12          0.8070    -4.2000    -1.4080 cc         1 9KV      -0.137000
     32 C29          5.6590    -3.2390    -0.6180 ca         1 9KV      -0.109500
     33 C34          6.0400    -4.5490    -0.9470 ca         1 9KV      -0.108000
     34 C9           1.8790    -3.4070    -1.0700 cd         1 9KV      -0.178000
     35 S6           1.3320    -1.7590    -0.6710 ss         1 9KV       0.312000
     36 H1          -1.5720     1.3150     1.1780 h1         1 9KV       0.068700
     37 H2           1.9200     3.7610     0.1350 h1         1 9KV       0.080700
     38 H3           4.0460    -1.8440    -0.3960 ha         1 9KV       0.116500
     39 H4           2.9760    -5.8610    -1.6460 ha         1 9KV       0.116500
     40 H5          -2.4410    -0.2160     2.8760 hc         1 9KV       0.042700
     41 H6          -2.1810    -1.5960     1.8190 hc         1 9KV       0.042700
     42 H7          -0.4570     5.5770     0.8790 hc         1 9KV       0.045200
     43 H8           0.8300     5.0610     1.9650 hc         1 9KV       0.045200
     44 H9          -5.2680     2.7450    -0.9190 ha         1 9KV       0.110000
     45 H10          5.3550    -6.5010    -1.5720 ha         1 9KV       0.113000
     46 H11          0.2530    -1.0220     1.6350 hc         1 9KV       0.077700
     47 H12         -2.8860     2.4910    -0.2170 ha         1 9KV       0.110000
     48 H13         -5.3770    -1.4360    -2.0600 ha         1 9KV       0.129000
     49 H14          1.1940     1.0300     2.6830 hc         1 9KV       0.042700
     50 H15         -0.3680     1.4040     3.4050 hc         1 9KV       0.042700
     51 H16          0.8090     3.5490    -2.0990 hc         1 9KV       0.045200
     52 H17         -0.4710     4.6490    -1.6010 hc         1 9KV       0.045200
     53 H18         -6.5210     0.7850    -1.8300 ha         1 9KV       0.113000
     54 H19          1.3950    -1.0520     4.0010 hc         1 9KV       0.044200
     55 H20          1.1170     0.3160     5.0740 hc         1 9KV       0.044200
     56 H21         -2.2250    -2.3010     4.2110 hc         1 9KV       0.044200
     57 H22         -0.6740    -2.6700     3.4650 hc         1 9KV       0.044200
     58 H23          2.5160     5.3470    -1.9050 hc         1 9KV       0.044200
     59 H24          1.2130     5.8730    -2.9660 hc         1 9KV       0.044200
     60 H25          1.2390     7.3850     1.0970 hc         1 9KV       0.044200
     61 H26          2.5320     6.2870     0.6240 hc         1 9KV       0.044200
     62 H27          1.8760     7.6780    -1.3290 hc         1 9KV       0.041200
     63 H28          0.1860     7.2170    -1.1470 hc         1 9KV       0.041200
     64 H29         -0.3020    -1.6670     5.7110 hc         1 9KV       0.040200
     65 H30         -1.2890    -0.2680     5.2960 hc         1 9KV       0.040200
     66 H31         -0.8470     3.1760     0.9370 hn         1 9KV       0.310500
     67 H32         -1.3700    -4.0510    -1.5950 ha         1 9KV       0.142000
     68 H33          0.8730    -5.2420    -1.7030 ha         1 9KV       0.134000
     69 H34          6.4150    -2.5110    -0.3310 ha         1 9KV       0.113000
     70 H35          7.0890    -4.8370    -0.9160 ha         1 9KV       0.113000
     71 O14          1.2820     1.2490    -0.3470 o          1 9KV      -0.589100
@<TRIPOS>BOND
     1     1     6 1   
     2     1    15 2   
     3     2    15 1   
     4     2    30 2   
     5     2    35 1   
     6     3     4 1   
     7     3    28 1   
     8     3    71 2   
     9     4    16 1   
    10     4    29 1   
    11     4    36 1   
    12     5     6 ar  
    13     5    17 ar  
    14     5    29 1   
    15     6    18 ar  
    16     7     9 ar  
    17     7    10 ar  
    18     7    34 1   
    19     8    12 1   
    20     8    20 1   
    21     8    28 1   
    22     8    37 1   
    23     9    32 ar  
    24     9    38 1   
    25    10    14 ar  
    26    10    39 1   
    27    11    16 1   
    28    11    23 1   
    29    11    40 1   
    30    11    41 1   
    31    12    25 1   
    32    12    42 1   
    33    12    43 1   
    34    13    17 ar  
    35    13    21 ar  
    36    13    44 1   
    37    14    33 ar  
    38    14    45 1   
    39    15    29 1   
    40    16    19 1   
    41    16    46 1   
    42    17    47 1   
    43    18    21 ar  
    44    18    48 1   
    45    19    22 1   
    46    19    49 1   
    47    19    50 1   
    48    20    24 1   
    49    20    51 1   
    50    20    52 1   
    51    21    53 1   
    52    22    27 1   
    53    22    54 1   
    54    22    55 1   
    55    23    27 1   
    56    23    56 1   
    57    23    57 1   
    58    24    26 1   
    59    24    58 1   
    60    24    59 1   
    61    25    26 1   
    62    25    60 1   
    63    25    61 1   
    64    26    62 1   
    65    26    63 1   
    66    27    64 1   
    67    27    65 1   
    68    28    66 1   
    69    30    31 1   
    70    30    67 1   
    71    31    34 2   
    72    31    68 1   
    73    32    33 ar  
    74    32    69 1   
    75    33    70 1   
    76    34    35 1   
@<TRIPOS>SUBSTRUCTURE
     1 9KV         1 TEMP              0 ****  ****    0 ROOT
