@<TRIPOS>MOLECULE
9KV
   71    76     1     0     0
SMALL
abcg2


@<TRIPOS>ATOM
      1 N3          -2.5670    -1.5890    -1.9560 nc         1 9KV      -0.563100
      2 C4          -0.4650    -2.0420    -0.8720 cd         1 9KV      -0.258900
      3 C5          -0.2760     1.5490    -0.1680 c          1 9KV       0.588100
      4 C7          -1.2650     0.6590     0.5940 c3         1 9KV       0.012300
      5 C8          -3.2330     0.2880    -0.8760 ca         1 9KV      -0.080200
      6 C10         -3.5700    -0.6620    -1.8490 ca         1 9KV       0.075400
      7 C15          3.2220    -3.3450    -0.7280 ca         1 9KV      -0.008000
      8 C17          0.8810     3.7310    -0.1350 c6         1 9KV       0.109700
      9 C20          4.0960    -2.6000    -1.5240 ca         1 9KV      -0.100000
     10 C21          3.7520    -4.3540     0.0810 ca         1 9KV      -0.100000
     11 C22         -1.7280    -1.0150     2.4110 c6         1 9KV      -0.072400
     12 C24          1.6030     4.4100     1.0260 c6         1 9KV      -0.089900
     13 C26         -5.2550     1.4470    -1.2640 ca         1 9KV      -0.095000
     14 C28          5.1140    -4.6140     0.0860 ca         1 9KV      -0.109500
     15 C1          -1.6560    -1.2260    -1.0930 cd         1 9KV       0.521400
     16 C16         -0.6370    -0.2100     1.7030 c6         1 9KV      -0.068700
     17 C18         -4.0630     1.3620    -0.5670 ca         1 9KV      -0.119000
     18 C19         -4.7770    -0.5610    -2.5410 ca         1 9KV      -0.046000
     19 C23          0.1470     0.6290     2.7130 c6         1 9KV      -0.072400
     20 C25          0.1750     4.7560    -1.0220 c6         1 9KV      -0.089900
     21 C27         -5.6090     0.5000    -2.2360 ca         1 9KV      -0.136000
     22 C30          0.7180    -0.2450     3.8260 c6         1 9KV      -0.073400
     23 C31         -1.1520    -1.8890     3.5200 c6         1 9KV      -0.073400
     24 C32          1.1540     5.8150    -1.5200 c6         1 9KV      -0.071400
     25 C33          2.5780     5.4710     0.5250 c6         1 9KV      -0.071400
     26 C35          1.8760     6.4950    -0.3610 c6         1 9KV      -0.077400
     27 C36         -0.3650    -1.0570     4.5250 c6         1 9KV      -0.075400
     28 N13         -0.0530     2.7450     0.3810 ns         1 9KV      -0.498900
     29 N2          -2.0110    -0.1050    -0.3870 na         1 9KV      -0.163600
     30 C11         -0.5100    -3.3630    -0.5240 cc         1 9KV      -0.095000
     31 C12          0.7680    -3.9590    -0.4290 cc         1 9KV      -0.137000
     32 C29          5.4580    -2.8560    -1.5100 ca         1 9KV      -0.109500
     33 C34          5.9740    -3.8650    -0.7070 ca         1 9KV      -0.108000
     34 C9           1.7810    -3.0890    -0.7300 cd         1 9KV      -0.178000
     35 S6           1.1640    -1.5260    -1.1170 ss         1 9KV       0.312000
     36 H1          -1.9980     1.3000     1.0930 h1         1 9KV       0.068700
     37 H2           1.6180     3.1940    -0.7380 h1         1 9KV       0.080700
     38 H3           3.7120    -1.8230    -2.1750 ha         1 9KV       0.116500
     39 H4           3.0990    -4.9270     0.7260 ha         1 9KV       0.116500
     40 H5          -2.4600    -0.3220     2.8440 hc         1 9KV       0.042700
     41 H6          -2.2710    -1.6380     1.6970 hc         1 9KV       0.042700
     42 H7           0.8630     4.8830     1.6830 hc         1 9KV       0.045200
     43 H8           2.1260     3.6600     1.6250 hc         1 9KV       0.045200
     44 H9          -5.9320     2.2650    -1.0530 ha         1 9KV       0.110000
     45 H10          5.5060    -5.3990     0.7200 ha         1 9KV       0.113000
     46 H11          0.0680    -0.9120     1.2550 hc         1 9KV       0.077700
     47 H12         -3.8050     2.1030     0.1790 ha         1 9KV       0.110000
     48 H13         -5.0490    -1.2930    -3.2910 ha         1 9KV       0.129000
     49 H14          0.9680     1.1550     2.2210 hc         1 9KV       0.042700
     50 H15         -0.5060     1.3980     3.1440 hc         1 9KV       0.042700
     51 H16         -0.2990     4.2470    -1.8640 hc         1 9KV       0.045200
     52 H17         -0.6260     5.2330    -0.4450 hc         1 9KV       0.045200
     53 H18         -6.5530     0.6050    -2.7560 ha         1 9KV       0.113000
     54 H19          1.4600    -0.9260     3.3950 hc         1 9KV       0.044200
     55 H20          1.2520     0.3810     4.5440 hc         1 9KV       0.044200
     56 H21         -1.9600    -2.4280     4.0190 hc         1 9KV       0.044200
     57 H22         -0.4980    -2.6490     3.0800 hc         1 9KV       0.044200
     58 H23          1.8910     5.3410    -2.1780 hc         1 9KV       0.044200
     59 H24          0.6250     6.5520    -2.1270 hc         1 9KV       0.044200
     60 H25          3.0510     5.9630     1.3760 hc         1 9KV       0.044200
     61 H26          3.3810     4.9890    -0.0420 hc         1 9KV       0.044200
     62 H27          2.5960     7.2230    -0.7420 hc         1 9KV       0.041200
     63 H28          1.1510     7.0560     0.2390 hc         1 9KV       0.041200
     64 H29          0.0780    -1.7000     5.2900 hc         1 9KV       0.040200
     65 H30         -1.0490    -0.3780     5.0460 hc         1 9KV       0.040200
     66 H31         -0.5670     2.9960     1.2110 hn         1 9KV       0.310500
     67 H32         -1.4360    -3.8860    -0.3340 ha         1 9KV       0.142000
     68 H33          0.9250    -4.9950    -0.1650 ha         1 9KV       0.134000
     69 H34          6.1170    -2.2680    -2.1360 ha         1 9KV       0.113000
     70 H35          7.0370    -4.0660    -0.6990 ha         1 9KV       0.113000
     71 O14          0.2410     1.1590    -1.2050 o          1 9KV      -0.589100
@<TRIPOS>BOND
     1     1     6 1   
     2     1    15 2   
     3     2    15 1   
     4     2    30 2   
     5     2    35 1   
     6     3     4 1   
     7     3    28 1   
     8     3    71 2   
     9     4    16 1   
    10     4    29 1   
    11     4    36 1   
    12     5     6 ar  
    13     5    17 ar  
    14     5    29 1   
    15     6    18 ar  
    16     7     9 ar  
    17     7    10 ar  
    18     7    34 1   
    19     8    12 1   
    20     8    20 1   
    21     8    28 1   
    22     8    37 1   
    23     9    32 ar  
    24     9    38 1   
    25    10    14 ar  
    26    10    39 1   
    27    11    16 1   
    28    11    23 1   
    29    11    40 1   
    30    11    41 1   
    31    12    25 1   
    32    12    42 1   
    33    12    43 1   
    34    13    17 ar  
    35    13    21 ar  
    36    13    44 1   
    37    14    33 ar  
    38    14    45 1   
    39    15    29 1   
    40    16    19 1   
    41    16    46 1   
    42    17    47 1   
    43    18    21 ar  
    44    18    48 1   
    45    19    22 1   
    46    19    49 1   
    47    19    50 1   
    48    20    24 1   
    49    20    51 1   
    50    20    52 1   
    51    21    53 1   
    52    22    27 1   
    53    22    54 1   
    54    22    55 1   
    55    23    27 1   
    56    23    56 1   
    57    23    57 1   
    58    24    26 1   
    59    24    58 1   
    60    24    59 1   
    61    25    26 1   
    62    25    60 1   
    63    25    61 1   
    64    26    62 1   
    65    26    63 1   
    66    27    64 1   
    67    27    65 1   
    68    28    66 1   
    69    30    31 1   
    70    30    67 1   
    71    31    34 2   
    72    31    68 1   
    73    32    33 ar  
    74    32    69 1   
    75    33    70 1   
    76    34    35 1   
@<TRIPOS>SUBSTRUCTURE
     1 9KV         1 TEMP              0 ****  ****    0 ROOT
