@<TRIPOS>MOLECULE
9KW
   62    66     1     0     0
SMALL
abcg2


@<TRIPOS>ATOM
      1 C4          -3.0700     0.1270     0.3520 ca         1 9KW       0.033600
      2 C14          2.2560     1.8690     1.1560 ca         1 9KW      -0.136000
      3 C5          -2.1300    -0.8550     0.6400 ca         1 9KW      -0.137000
      4 C6          -1.0370    -1.0810    -0.1840 ca         1 9KW       0.202000
      5 C11         -0.8950    -0.3200    -1.3450 ca         1 9KW       0.269000
      6 C7          -0.5680    -3.4280     0.2090 c6         1 9KW       0.137300
      7 C8           0.6080    -4.3820     0.3100 c6         1 9KW       0.152600
      8 C9           1.9310    -2.7390     1.2970 c6         1 9KW       0.152600
      9 C10          0.7940    -1.7390     1.2350 c6         1 9KW       0.137300
     10 C12          2.1650     0.8360    -0.9860 ca         1 9KW      -0.312500
     11 C13          1.6270     1.7290    -0.0670 ca         1 9KW      -0.014000
     12 N1          -4.1520     0.3580     1.1970 n          1 9KW      -0.290000
     13 N2          -0.0590    -2.0660     0.0990 nh         1 9KW      -0.785400
     14 C3          -4.2720    -0.4180     2.4220 c3         1 9KW       0.074300
     15 N3           0.1780    -0.5970    -2.2160 nu         1 9KW      -0.837100
     16 N           -3.8540     1.8680    -1.1320 n          1 9KW      -0.290000
     17 C           -3.6570     2.6740    -2.3270 c3         1 9KW       0.069300
     18 C1          -4.9490     2.0920    -0.3650 c          1 9KW       0.488000
     19 C15          3.4060     1.1450     1.4770 ca         1 9KW      -0.016300
     20 C16          4.0560     1.3540     2.8190 c6         1 9KW      -0.042100
     21 C17          5.0570     0.2650     3.1770 c6         1 9KW      -0.073400
     22 C18          5.9820    -0.0030     2.0000 c6         1 9KW      -0.074400
     23 C19          5.1850    -0.5440     0.8210 c6         1 9KW      -0.033100
     24 C2          -5.1110     1.2690     0.9030 c          1 9KW       0.486000
     25 C20          3.9420     0.2610     0.5360 ca         1 9KW      -0.097300
     26 C21          3.3070     0.1090    -0.6940 ca         1 9KW      -0.015000
     27 C22         -1.8450     0.6380    -1.6620 ca         1 9KW      -0.122000
     28 C23         -2.9180     0.8860    -0.8160 ca         1 9KW       0.052600
     29 O1          -6.0850     1.4780     1.5960 o          1 9KW      -0.485000
     30 O2           1.4500    -4.0610     1.3950 os         1 9KW      -0.447000
     31 O3           0.6420     1.7860    -2.8890 o          1 9KW      -0.530500
     32 O4           2.2610    -0.0570    -3.4520 o          1 9KW      -0.530500
     33 S            1.3390     0.5670    -2.5210 sy         1 9KW       1.139600
     34 H2          -2.2300    -1.4650     1.5270 ha         1 9KW       0.127000
     35 H3          -1.1500    -3.6720    -0.6810 h1         1 9KW       0.050200
     36 H4          -1.2270    -3.5520     1.0820 h1         1 9KW       0.050200
     37 H5           0.2490    -5.4000     0.4660 h1         1 9KW       0.053700
     38 H6           1.1700    -4.3590    -0.6340 h1         1 9KW       0.053700
     39 H7           2.5590    -2.6220     0.4020 h1         1 9KW       0.053700
     40 H8           2.5540    -2.5490     2.1730 h1         1 9KW       0.053700
     41 H9           0.2330    -1.7490     2.1820 h1         1 9KW       0.050200
     42 H10          1.2000    -0.7360     1.1070 h1         1 9KW       0.050200
     43 H11          0.7400     2.3060    -0.2910 ha         1 9KW       0.137000
     44 H12         -3.3730    -0.3100     3.0260 h1         1 9KW       0.056367
     45 H13         -5.1180    -0.0570     2.9930 h1         1 9KW       0.056367
     46 H14         -4.4260    -1.4720     2.1950 h1         1 9KW       0.056367
     47 H15          0.6230    -1.4770    -1.9500 hn         1 9KW       0.503000
     48 H16         -4.4370     3.4220    -2.3880 h1         1 9KW       0.061700
     49 H17         -2.6930     3.1770    -2.2860 h1         1 9KW       0.061700
     50 H18         -3.7000     2.0530    -3.2210 h1         1 9KW       0.061700
     51 H19          4.5650     2.3240     2.8050 hc         1 9KW       0.056700
     52 H20          3.2820     1.4340     3.5860 hc         1 9KW       0.056700
     53 H21          5.6240     0.5670     4.0590 hc         1 9KW       0.045200
     54 H22          4.5300    -0.6570     3.4450 hc         1 9KW       0.045200
     55 H23          6.4840     0.9260     1.7120 hc         1 9KW       0.048200
     56 H24          6.7660    -0.7130     2.2690 hc         1 9KW       0.048200
     57 H25          5.8040    -0.5800    -0.0780 hc         1 9KW       0.052200
     58 H26          4.8940    -1.5800     1.0260 hc         1 9KW       0.052200
     59 H27          3.7250    -0.5790    -1.4180 ha         1 9KW       0.136000
     60 H28         -1.7490     1.1790    -2.5890 ha         1 9KW       0.160000
     61 O           -5.8000     2.9160    -0.6220 o          1 9KW      -0.482000
     62 H1           1.8430     2.5580     1.8820 ha         1 9KW       0.119000
@<TRIPOS>BOND
     1     1     3 ar  
     2     1    12 1   
     3     1    28 ar  
     4     2    11 ar  
     5     2    19 ar  
     6     2    62 1   
     7     3     4 ar  
     8     3    34 1   
     9     4     5 ar  
    10     4    13 1   
    11     5    15 1   
    12     5    27 ar  
    13     6     7 1   
    14     6    13 1   
    15     6    35 1   
    16     6    36 1   
    17     7    30 1   
    18     7    37 1   
    19     7    38 1   
    20     8     9 1   
    21     8    30 1   
    22     8    39 1   
    23     8    40 1   
    24     9    13 1   
    25     9    41 1   
    26     9    42 1   
    27    10    11 ar  
    28    10    26 ar  
    29    10    33 1   
    30    11    43 1   
    31    12    14 1   
    32    12    24 1   
    33    14    44 1   
    34    14    45 1   
    35    14    46 1   
    36    15    33 1   
    37    15    47 1   
    38    16    17 1   
    39    16    18 1   
    40    16    28 1   
    41    17    48 1   
    42    17    49 1   
    43    17    50 1   
    44    18    24 1   
    45    18    61 2   
    46    19    20 1   
    47    19    25 ar  
    48    20    21 1   
    49    20    51 1   
    50    20    52 1   
    51    21    22 1   
    52    21    53 1   
    53    21    54 1   
    54    22    23 1   
    55    22    55 1   
    56    22    56 1   
    57    23    25 1   
    58    23    57 1   
    59    23    58 1   
    60    24    29 2   
    61    25    26 ar  
    62    26    59 1   
    63    27    28 ar  
    64    27    60 1   
    65    31    33 2   
    66    32    33 2   
@<TRIPOS>SUBSTRUCTURE
     1 9KW         1 TEMP              0 ****  ****    0 ROOT
