@<TRIPOS>MOLECULE
9KW
   62    66     1     0     0
SMALL
No Charge or Current Charge


@<TRIPOS>ATOM
      1 C4          -2.9580     0.2740     0.4740 ca         1 9KW       0.033600
      2 C14          2.1750     1.9210     1.0120 ca         1 9KW      -0.136000
      3 C5          -2.0360    -0.7720     0.7200 ca         1 9KW      -0.137000
      4 C6          -1.0030    -1.0610    -0.1810 ca         1 9KW       0.202000
      5 C11         -0.9170    -0.3380    -1.3900 ca         1 9KW       0.269000
      6 C7          -0.4640    -3.5140    -0.0830 c6         1 9KW       0.137300
      7 C8           0.7630    -4.4750    -0.0370 c6         1 9KW       0.152600
      8 C9           2.0330    -2.9040     1.2710 c6         1 9KW       0.152600
      9 C10          0.8520    -1.8920     1.2840 c6         1 9KW       0.137300
     10 C12          2.1540     0.7080    -1.0970 ca         1 9KW      -0.312500
     11 C13          1.5970     1.6790    -0.2440 ca         1 9KW      -0.014000
     12 N1          -4.0930     0.4520     1.3520 n          1 9KW      -0.290000
     13 N2          -0.0640    -2.0860     0.1160 nh         1 9KW      -0.785400
     14 C3          -4.0590    -0.1210     2.7250 c3         1 9KW       0.074300
     15 N3           0.1000    -0.6530    -2.2870 nu         1 9KW      -0.837100
     16 N           -3.9170     1.9200    -1.1310 n          1 9KW      -0.290000
     17 C           -3.7050     2.8430    -2.2790 c3         1 9KW       0.069300
     18 C1          -5.1160     2.0350    -0.3890 c          1 9KW       0.488000
     19 C15          3.3100     1.2020     1.4310 ca         1 9KW      -0.016300
     20 C16          3.9070     1.4980     2.8120 c6         1 9KW      -0.042100
     21 C17          4.8740     0.4010     3.3110 c6         1 9KW      -0.073400
     22 C18          5.8670     0.0130     2.1980 c6         1 9KW      -0.074400
     23 C19          5.1180    -0.5760     0.9820 c6         1 9KW      -0.033100
     24 C2          -5.2130     1.2290     0.9750 c          1 9KW       0.486000
     25 C20          3.8830     0.2370     0.5680 ca         1 9KW      -0.097300
     26 C21          3.2970    -0.0100    -0.6880 ca         1 9KW      -0.015000
     27 C22         -1.8660     0.6490    -1.6820 ca         1 9KW      -0.122000
     28 C23         -2.8720     0.9970    -0.7490 ca         1 9KW       0.052600
     29 O1          -6.2180     1.3040     1.6810 o          1 9KW      -0.485000
     30 O2           1.5400    -4.2600     1.1650 os         1 9KW      -0.447000
     31 O3           0.7370     1.5610    -3.2070 o          1 9KW      -0.530500
     32 O4           2.2460    -0.4990    -3.4880 o          1 9KW      -0.530500
     33 S            1.3770     0.3550    -2.6760 sy         1 9KW       1.139600
     34 H2          -2.1080    -1.3840     1.6120 ha         1 9KW       0.127000
     35 H3          -0.9680    -3.6340    -1.0530 h1         1 9KW       0.050200
     36 H4          -1.1780    -3.8140     0.6980 h1         1 9KW       0.050200
     37 H5           0.4200    -5.5190    -0.0640 h1         1 9KW       0.053700
     38 H6           1.4030    -4.3040    -0.9150 h1         1 9KW       0.053700
     39 H7           2.6940    -2.6940     0.4180 h1         1 9KW       0.053700
     40 H8           2.6230    -2.8030     2.1930 h1         1 9KW       0.053700
     41 H9           0.2940    -2.0140     2.2240 h1         1 9KW       0.050200
     42 H10          1.2610    -0.8720     1.2790 h1         1 9KW       0.050200
     43 H11          0.7110     2.2380    -0.5440 ha         1 9KW       0.137000
     44 H12         -3.0520    -0.0190     3.1490 h1         1 9KW       0.056367
     45 H13         -4.7530     0.4010     3.3960 h1         1 9KW       0.056367
     46 H14         -4.3320    -1.1830     2.6880 h1         1 9KW       0.056367
     47 H15          0.5940    -1.4630    -1.9300 hn         1 9KW       0.503000
     48 H16         -4.3510     3.7260    -2.2100 h1         1 9KW       0.061700
     49 H17         -2.6660     3.1960    -2.2900 h1         1 9KW       0.061700
     50 H18         -3.9200     2.3190    -3.2190 h1         1 9KW       0.061700
     51 H19          4.4430     2.4560     2.7640 hc         1 9KW       0.056700
     52 H20          3.1030     1.6350     3.5470 hc         1 9KW       0.056700
     53 H21          5.4150     0.7540     4.1990 hc         1 9KW       0.045200
     54 H22          4.3020    -0.4850     3.6220 hc         1 9KW       0.045200
     55 H23          6.4390     0.8990     1.8890 hc         1 9KW       0.048200
     56 H24          6.5970    -0.7160     2.5770 hc         1 9KW       0.048200
     57 H25          5.8130    -0.6600     0.1350 hc         1 9KW       0.052200
     58 H26          4.8030    -1.6010     1.2190 hc         1 9KW       0.052200
     59 H27          3.7310    -0.7680    -1.3390 ha         1 9KW       0.136000
     60 H28         -1.8110     1.1290    -2.6520 ha         1 9KW       0.160000
     61 O           -6.0450     2.7510    -0.7650 o          1 9KW      -0.482000
     62 H1           1.7330     2.6690     1.6660 ha         1 9KW       0.119000
@<TRIPOS>BOND
     1     1     3 ar  
     2     1    12 1   
     3     1    28 ar  
     4     2    11 ar  
     5     2    19 ar  
     6     2    62 1   
     7     3     4 ar  
     8     3    34 1   
     9     4     5 ar  
    10     4    13 1   
    11     5    15 1   
    12     5    27 ar  
    13     6     7 1   
    14     6    13 1   
    15     6    35 1   
    16     6    36 1   
    17     7    30 1   
    18     7    37 1   
    19     7    38 1   
    20     8     9 1   
    21     8    30 1   
    22     8    39 1   
    23     8    40 1   
    24     9    13 1   
    25     9    41 1   
    26     9    42 1   
    27    10    11 ar  
    28    10    26 ar  
    29    10    33 1   
    30    11    43 1   
    31    12    14 1   
    32    12    24 1   
    33    14    44 1   
    34    14    45 1   
    35    14    46 1   
    36    15    33 1   
    37    15    47 1   
    38    16    17 1   
    39    16    18 1   
    40    16    28 1   
    41    17    48 1   
    42    17    49 1   
    43    17    50 1   
    44    18    24 1   
    45    18    61 2   
    46    19    20 1   
    47    19    25 ar  
    48    20    21 1   
    49    20    51 1   
    50    20    52 1   
    51    21    22 1   
    52    21    53 1   
    53    21    54 1   
    54    22    23 1   
    55    22    55 1   
    56    22    56 1   
    57    23    25 1   
    58    23    57 1   
    59    23    58 1   
    60    24    29 2   
    61    25    26 ar  
    62    26    59 1   
    63    27    28 ar  
    64    27    60 1   
    65    31    33 2   
    66    32    33 2   
@<TRIPOS>SUBSTRUCTURE
     1 9KW         1 TEMP              0 ****  ****    0 ROOT
