@<TRIPOS>MOLECULE
9KX
   68    70     1     0     0
SMALL
No Charge or Current Charge


@<TRIPOS>ATOM
      1 O1          -4.9460    -3.8230    -0.3330 oh         1 9KX      -0.654000
      2 C1          -5.2040    -2.4200    -0.4440 c6         1 9KX       0.212000
      3 C2          -6.6850    -2.0980    -0.1830 c2         1 9KX      -0.199400
      4 C3          -7.0040    -0.6040    -0.1780 c6         1 9KX       0.212000
      5 C4          -6.0320     0.1950     0.7320 c6         1 9KX      -0.032200
      6 C5          -4.5650    -0.1370     0.4610 c2         1 9KX      -0.106400
      7 C6          -3.6550     0.8400     0.2090 ce         1 9KX      -0.161000
      8 C7          -2.2200     0.6550    -0.0900 ce         1 9KX      -0.189000
      9 C8          -1.2850     1.6460    -0.1450 c2         1 9KX      -0.079400
     10 C9          -7.6510    -3.0180     0.0250 c2         1 9KX      -0.298000
     11 C10          0.1530     1.2840    -0.5770 c5         1 9KX      -0.035500
     12 C11          1.1720     1.8820     0.4500 c5         1 9KX      -0.037000
     13 C12          0.9910     3.4340     0.4700 c6         1 9KX      -0.063400
     14 C13         -0.4440     3.8440     0.9020 c6         1 9KX      -0.071400
     15 C14         -1.5510     3.1430     0.0690 c6         1 9KX      -0.041200
     16 C15          0.5670    -0.2150    -0.5940 c5         1 9KX      -0.070400
     17 C16          2.1290    -0.1390    -0.5940 c5         1 9KX      -0.078400
     18 C17          2.4970     1.3570    -0.2610 c5         1 9KX      -0.046700
     19 C18          1.0370     1.3440     1.9190 c3         1 9KX      -0.080100
     20 C19          3.9080     1.4850     0.4450 c3         1 9KX      -0.143700
     21 C20          4.3480     2.9270     0.7920 c3         1 9KX      -0.084100
     22 C21          5.0030     0.7910    -0.4010 c          1 9KX       0.570300
     23 C22          5.6640    -0.4140     0.1850 ce         1 9KX      -0.320200
     24 C23          6.6400    -1.1420    -0.4280 cf         1 9KX      -0.094000
     25 C24          7.2710    -2.3150     0.1590 cf         1 9KX      -0.218000
     26 C25          8.2380    -3.0360    -0.4500 c2         1 9KX      -0.173200
     27 C26          8.9110    -4.2580     0.1340 c3         1 9KX      -0.065900
     28 O           -6.9590    -0.1200    -1.5210 oh         1 9KX      -0.654000
     29 C           -4.2850    -1.6410     0.5290 c6         1 9KX      -0.032200
     30 H1          -5.5380    -4.2540    -0.9860 ho         1 9KX       0.441500
     31 H2          -4.9600    -2.0900    -1.4650 h1         1 9KX       0.042200
     32 H3          -8.0200    -0.4580     0.2210 h1         1 9KX       0.042200
     33 H4          -6.2220     1.2700     0.6180 hc         1 9KX       0.058200
     34 H5          -6.2580    -0.0400     1.7810 hc         1 9KX       0.058200
     35 H6          -4.0150     1.8670     0.2030 ha         1 9KX       0.170000
     36 H7          -1.9310    -0.3660    -0.3140 ha         1 9KX       0.173000
     37 H8          -8.6870    -2.7260     0.2050 ha         1 9KX       0.167500
     38 H9          -7.4580    -4.0910     0.0370 ha         1 9KX       0.167500
     39 H10          0.3140     1.7130    -1.5760 hc         1 9KX       0.055700
     40 H11          1.7080     3.9080     1.1500 hc         1 9KX       0.040700
     41 H12          1.1990     3.8440    -0.5280 hc         1 9KX       0.040700
     42 H13         -0.5920     3.6190     1.9660 hc         1 9KX       0.039700
     43 H14         -0.5560     4.9330     0.8140 hc         1 9KX       0.039700
     44 H15         -1.6160     3.6260    -0.9150 hc         1 9KX       0.047200
     45 H16         -2.5110     3.3250     0.5630 hc         1 9KX       0.047200
     46 H17          0.2100    -0.7570     0.2880 hc         1 9KX       0.044700
     47 H18          0.1810    -0.7410    -1.4750 hc         1 9KX       0.044700
     48 H19          2.5410    -0.8380     0.1440 hc         1 9KX       0.045200
     49 H20          2.5430    -0.4370    -1.5650 hc         1 9KX       0.045200
     50 H21          2.6160     1.9000    -1.2090 hc         1 9KX       0.064700
     51 H22          1.3400     0.2960     2.0180 hc         1 9KX       0.033700
     52 H23          1.6730     1.9150     2.6050 hc         1 9KX       0.033700
     53 H24          0.0090     1.4110     2.2920 hc         1 9KX       0.033700
     54 H25          3.8490     0.9450     1.3960 hc         1 9KX       0.060700
     55 H26          3.7660     3.3240     1.6300 hc         1 9KX       0.040700
     56 H27          5.4010     2.9440     1.0960 hc         1 9KX       0.040700
     57 H28          4.2300     3.5950    -0.0710 hc         1 9KX       0.040700
     58 H29          5.3250    -0.7180     1.1730 ha         1 9KX       0.181000
     59 H30          6.9800    -0.8370    -1.4220 ha         1 9KX       0.188000
     60 H31          6.9300    -2.6180     1.1520 ha         1 9KX       0.176000
     61 H32          8.5910    -2.7480    -1.4430 ha         1 9KX       0.171000
     62 H33          9.4170    -4.0170     1.0770 hc         1 9KX       0.045700
     63 H34          8.1800    -5.0510     0.3380 hc         1 9KX       0.045700
     64 H35          9.6610    -4.6650    -0.5540 hc         1 9KX       0.045700
     65 H36         -7.5220    -0.7310    -2.0430 ho         1 9KX       0.441500
     66 H37         -4.4670    -1.9890     1.5540 hc         1 9KX       0.058200
     67 H38         -3.2410    -1.8870     0.3140 hc         1 9KX       0.058200
     68 O2           5.3160     1.2090    -1.5100 o          1 9KX      -0.534100
@<TRIPOS>BOND
     1     1     2 1   
     2     1    30 1   
     3     2     3 1   
     4     2    29 1   
     5     2    31 1   
     6     3     4 1   
     7     3    10 2   
     8     4     5 1   
     9     4    28 1   
    10     4    32 1   
    11     5     6 1   
    12     5    33 1   
    13     5    34 1   
    14     6     7 2   
    15     6    29 1   
    16     7     8 1   
    17     7    35 1   
    18     8     9 2   
    19     8    36 1   
    20     9    11 1   
    21     9    15 1   
    22    10    37 1   
    23    10    38 1   
    24    11    12 1   
    25    11    16 1   
    26    11    39 1   
    27    12    13 1   
    28    12    18 1   
    29    12    19 1   
    30    13    14 1   
    31    13    40 1   
    32    13    41 1   
    33    14    15 1   
    34    14    42 1   
    35    14    43 1   
    36    15    44 1   
    37    15    45 1   
    38    16    17 1   
    39    16    46 1   
    40    16    47 1   
    41    17    18 1   
    42    17    48 1   
    43    17    49 1   
    44    18    20 1   
    45    18    50 1   
    46    19    51 1   
    47    19    52 1   
    48    19    53 1   
    49    20    21 1   
    50    20    22 1   
    51    20    54 1   
    52    21    55 1   
    53    21    56 1   
    54    21    57 1   
    55    22    23 1   
    56    22    68 2   
    57    23    24 2   
    58    23    58 1   
    59    24    25 1   
    60    24    59 1   
    61    25    26 2   
    62    25    60 1   
    63    26    27 1   
    64    26    61 1   
    65    27    62 1   
    66    27    63 1   
    67    27    64 1   
    68    28    65 1   
    69    29    66 1   
    70    29    67 1   
@<TRIPOS>SUBSTRUCTURE
     1 9KX         1 TEMP              0 ****  ****    0 ROOT
