@<TRIPOS>MOLECULE
9KX
   68    70     1     0     0
SMALL
abcg2


@<TRIPOS>ATOM
      1 O1          -5.4850    -3.4730    -0.5240 oh         1 9KX      -0.654000
      2 C1          -5.6270    -2.0760    -0.4870 c6         1 9KX       0.212000
      3 C2          -6.9890    -1.6130    -0.0310 c2         1 9KX      -0.199400
      4 C3          -7.1310    -0.1150     0.0800 c6         1 9KX       0.212000
      5 C4          -6.0500     0.4270     1.0140 c6         1 9KX      -0.032200
      6 C5          -4.6850    -0.0270     0.5850 c2         1 9KX      -0.106400
      7 C6          -3.7060     0.8560     0.3360 ce         1 9KX      -0.161000
      8 C7          -2.3530     0.5490    -0.0910 ce         1 9KX      -0.189000
      9 C8          -1.3650     1.4300    -0.3120 c2         1 9KX      -0.079400
     10 C9          -7.9770    -2.4350     0.3040 c2         1 9KX      -0.298000
     11 C10          0.0060     1.0190    -0.7470 c5         1 9KX      -0.035500
     12 C11          1.1040     1.4880     0.2400 c5         1 9KX      -0.037000
     13 C12          1.0340     3.0150     0.3170 c6         1 9KX      -0.063400
     14 C13         -0.3590     3.4910     0.7310 c6         1 9KX      -0.071400
     15 C14         -1.4700     2.9240    -0.1600 c6         1 9KX      -0.041200
     16 C15          0.3390    -0.4420    -1.0070 c5         1 9KX      -0.070400
     17 C16          1.8790    -0.4630    -1.0090 c5         1 9KX      -0.078400
     18 C17          2.3570     0.9050    -0.4520 c5         1 9KX      -0.046700
     19 C18          0.9010     0.8650     1.6240 c3         1 9KX      -0.080100
     20 C19          3.6250     0.7480     0.3860 c3         1 9KX      -0.143700
     21 C20          4.1620     2.0460     1.0040 c3         1 9KX      -0.084100
     22 C21          4.7700     0.1850    -0.4410 c          1 9KX       0.570300
     23 C22          5.7560    -0.6230     0.2950 ce         1 9KX      -0.320200
     24 C23          6.8980    -1.0530    -0.2670 cf         1 9KX      -0.094000
     25 C24          7.8960    -1.8380     0.4180 cf         1 9KX      -0.218000
     26 C25          9.0450    -2.2070    -0.1640 c2         1 9KX      -0.173200
     27 C26         10.1160    -3.0020     0.4920 c3         1 9KX      -0.065900
     28 O           -6.9650     0.5160    -1.1750 oh         1 9KX      -0.654000
     29 C           -4.5610    -1.5180     0.4640 c6         1 9KX      -0.032200
     30 H1          -6.0220    -3.8160    -1.2460 ho         1 9KX       0.441500
     31 H2          -5.4360    -1.6460    -1.4800 h1         1 9KX       0.042200
     32 H3          -8.1160     0.1190     0.5060 h1         1 9KX       0.042200
     33 H4          -6.1110     1.5180     1.0590 hc         1 9KX       0.058200
     34 H5          -6.2690     0.0510     2.0190 hc         1 9KX       0.058200
     35 H6          -3.9530     1.9040     0.4750 ha         1 9KX       0.170000
     36 H7          -2.1250    -0.4980    -0.2550 ha         1 9KX       0.173000
     37 H8          -8.9310    -2.0500     0.6420 ha         1 9KX       0.167500
     38 H9          -7.8800    -3.5130     0.2650 ha         1 9KX       0.167500
     39 H10          0.2110     1.5630    -1.6830 hc         1 9KX       0.055700
     40 H11          1.7710     3.4170     1.0150 hc         1 9KX       0.040700
     41 H12          1.2810     3.4280    -0.6680 hc         1 9KX       0.040700
     42 H13         -0.5510     3.2120     1.7710 hc         1 9KX       0.039700
     43 H14         -0.3980     4.5820     0.6990 hc         1 9KX       0.039700
     44 H15         -1.3740     3.3730    -1.1570 hc         1 9KX       0.047200
     45 H16         -2.4410     3.2350     0.2230 hc         1 9KX       0.047200
     46 H17         -0.0560    -1.0850    -0.2160 hc         1 9KX       0.044700
     47 H18         -0.0890    -0.8000    -1.9440 hc         1 9KX       0.044700
     48 H19          2.2550    -1.2850    -0.3930 hc         1 9KX       0.045200
     49 H20          2.2700    -0.6290    -2.0130 hc         1 9KX       0.045200
     50 H21          2.5910     1.5660    -1.2940 hc         1 9KX       0.064700
     51 H22          1.0620    -0.2140     1.6210 hc         1 9KX       0.033700
     52 H23          1.5930     1.2940     2.3520 hc         1 9KX       0.033700
     53 H24         -0.1070     1.0370     2.0020 hc         1 9KX       0.033700
     54 H25          3.4300     0.0400     1.1990 hc         1 9KX       0.060700
     55 H26          3.4980     2.4220     1.7810 hc         1 9KX       0.040700
     56 H27          5.1360     1.8900     1.4710 hc         1 9KX       0.040700
     57 H28          4.2750     2.8250     0.2480 hc         1 9KX       0.040700
     58 H29          5.5370    -0.8570     1.3310 ha         1 9KX       0.181000
     59 H30          7.1020    -0.7950    -1.3030 ha         1 9KX       0.188000
     60 H31          7.6950    -2.1260     1.4460 ha         1 9KX       0.176000
     61 H32          9.2260    -1.9040    -1.1920 ha         1 9KX       0.171000
     62 H33         11.0480    -2.4320     0.5340 hc         1 9KX       0.045700
     63 H34          9.8480    -3.2930     1.5070 hc         1 9KX       0.045700
     64 H35         10.3350    -3.9050    -0.0810 hc         1 9KX       0.045700
     65 H36         -7.6460     0.1830    -1.7670 ho         1 9KX       0.441500
     66 H37         -4.7160    -1.9710     1.4510 hc         1 9KX       0.058200
     67 H38         -3.5760    -1.8280     0.1180 hc         1 9KX       0.058200
     68 O2           4.8950     0.4410    -1.6260 o          1 9KX      -0.534100
@<TRIPOS>BOND
     1     1     2 1   
     2     1    30 1   
     3     2     3 1   
     4     2    29 1   
     5     2    31 1   
     6     3     4 1   
     7     3    10 2   
     8     4     5 1   
     9     4    28 1   
    10     4    32 1   
    11     5     6 1   
    12     5    33 1   
    13     5    34 1   
    14     6     7 2   
    15     6    29 1   
    16     7     8 1   
    17     7    35 1   
    18     8     9 2   
    19     8    36 1   
    20     9    11 1   
    21     9    15 1   
    22    10    37 1   
    23    10    38 1   
    24    11    12 1   
    25    11    16 1   
    26    11    39 1   
    27    12    13 1   
    28    12    18 1   
    29    12    19 1   
    30    13    14 1   
    31    13    40 1   
    32    13    41 1   
    33    14    15 1   
    34    14    42 1   
    35    14    43 1   
    36    15    44 1   
    37    15    45 1   
    38    16    17 1   
    39    16    46 1   
    40    16    47 1   
    41    17    18 1   
    42    17    48 1   
    43    17    49 1   
    44    18    20 1   
    45    18    50 1   
    46    19    51 1   
    47    19    52 1   
    48    19    53 1   
    49    20    21 1   
    50    20    22 1   
    51    20    54 1   
    52    21    55 1   
    53    21    56 1   
    54    21    57 1   
    55    22    23 1   
    56    22    68 2   
    57    23    24 2   
    58    23    58 1   
    59    24    25 1   
    60    24    59 1   
    61    25    26 2   
    62    25    60 1   
    63    26    27 1   
    64    26    61 1   
    65    27    62 1   
    66    27    63 1   
    67    27    64 1   
    68    28    65 1   
    69    29    66 1   
    70    29    67 1   
@<TRIPOS>SUBSTRUCTURE
     1 9KX         1 TEMP              0 ****  ****    0 ROOT
