@<TRIPOS>MOLECULE
9KY
   68    72     1     0     0
SMALL
No Charge or Current Charge


@<TRIPOS>ATOM
      1 N3          -1.0550    -2.8170     0.9830 nc         1 9KY      -0.557100
      2 C4          -0.5430     1.5390     0.8210 c          1 9KY       0.585100
      3 C5          -1.0950     0.6730    -0.3370 c3         1 9KY       0.014300
      4 C6          -2.4140    -0.9880     1.0810 ca         1 9KY      -0.057200
      5 C7          -2.1770    -2.2510     1.5530 ca         1 9KY       0.061400
      6 C13          0.7180    -1.6210    -1.9700 ca         1 9KY      -0.086000
      7 C15          2.9140    -2.8760    -0.7600 ca         1 9KY      -0.105500
      8 C17          3.0140    -2.4400    -2.0940 ca         1 9KY      -0.075300
      9 C21          4.3000    -2.6580    -2.8830 c3         1 9KY       0.207900
     10 C22         -1.5370     2.6390    -1.9510 c6         1 9KY      -0.073900
     11 C24          1.8390     3.7180     1.4650 c6         1 9KY      -0.089900
     12 C26         -4.3470    -0.7810     2.5190 ca         1 9KY      -0.100000
     13 C28         -3.8680     1.2080    -3.1430 c6         1 9KY      -0.072900
     14 C1          -0.6320    -1.8520     0.1430 cd         1 9KY       0.456400
     15 N2          -1.4440    -0.6920     0.1470 na         1 9KY      -0.171600
     16 N8           0.8300     1.5130     0.9540 ns         1 9KY      -0.498900
     17 C14          1.6050     2.2620     1.9460 c6         1 9KY       0.111700
     18 C31          2.7000     4.5170     2.4760 c6         1 9KY      -0.071900
     19 C32          4.0500     3.8080     2.7420 c6         1 9KY      -0.077400
     20 C30          3.8330     2.3470     3.2050 c6         1 9KY      -0.071900
     21 C25          2.9670     1.5620     2.1880 c6         1 9KY      -0.089900
     22 C11         -2.1590     1.4030    -1.2350 c6         1 9KY      -0.063700
     23 C29         -2.5840     3.3860    -2.8150 c6         1 9KY      -0.072900
     24 C33         -3.2430     2.4370    -3.8440 c6         1 9KY      -0.076400
     25 C23         -2.8210     0.4590    -2.2840 c6         1 9KY      -0.073900
     26 C19         -3.0140    -2.8310     2.5190 ca         1 9KY      -0.053000
     27 C27         -4.1090    -2.0860     3.0020 ca         1 9KY      -0.134000
     28 C18         -3.4940    -0.2170     1.5490 ca         1 9KY      -0.091000
     29 C9           0.6240    -2.0230    -0.6210 ca         1 9KY      -0.114900
     30 C12          1.7260    -2.6810    -0.0340 ca         1 9KY      -0.086000
     31 C16          1.9050    -1.8180    -2.6960 ca         1 9KY      -0.105500
     32 O20          5.1720    -1.5320    -2.7360 oh         1 9KY      -0.657000
     33 H1          -0.2380     0.5430    -1.0030 h1         1 9KY       0.069700
     34 H3           3.7590    -3.3690    -0.2840 ha         1 9KY       0.124000
     35 H4           4.7930    -3.5720    -2.5260 h1         1 9KY       0.027700
     36 H5           4.0520    -2.8130    -3.9420 h1         1 9KY       0.027700
     37 H6          -1.1180     3.3380    -1.2140 hc         1 9KY       0.043200
     38 H7          -0.6990     2.3210    -2.5880 hc         1 9KY       0.043200
     39 H8           2.3340     3.7120     0.4830 hc         1 9KY       0.045200
     40 H9           0.8750     4.2250     1.3240 hc         1 9KY       0.045200
     41 H10         -5.1890    -0.2070     2.8980 ha         1 9KY       0.111000
     42 H11         -4.7070     1.5290    -2.5090 hc         1 9KY       0.042700
     43 H12         -4.2890     0.5260    -3.8950 hc         1 9KY       0.042700
     44 H13          1.3380     0.9260     0.3030 hn         1 9KY       0.312500
     45 H14          1.0420     2.2800     2.8920 h1         1 9KY       0.078700
     46 H15          2.8790     5.5310     2.0940 hc         1 9KY       0.043950
     47 H16          2.1490     4.6320     3.4200 hc         1 9KY       0.043950
     48 H17          4.6600     3.8190     1.8280 hc         1 9KY       0.040200
     49 H18          4.6190     4.3610     3.5030 hc         1 9KY       0.040200
     50 H19          4.8030     1.8480     3.3330 hc         1 9KY       0.043950
     51 H20          3.3460     2.3390     4.1900 hc         1 9KY       0.043950
     52 H21          2.8000     0.5410     2.5590 hc         1 9KY       0.045200
     53 H22          3.5130     1.4640     1.2400 hc         1 9KY       0.045200
     54 H23         -2.9490     1.7740    -0.5710 hc         1 9KY       0.074700
     55 H24         -3.3560     3.8230    -2.1650 hc         1 9KY       0.042700
     56 H25         -2.1050     4.2260    -3.3360 hc         1 9KY       0.042700
     57 H26         -2.4930     2.1060    -4.5750 hc         1 9KY       0.039700
     58 H27         -4.0140     2.9780    -4.4090 hc         1 9KY       0.039700
     59 H28         -3.3120    -0.3870    -1.7830 hc         1 9KY       0.043200
     60 H29         -2.0530     0.0310    -2.9420 hc         1 9KY       0.043200
     61 H30         -2.8170    -3.8340     2.8890 ha         1 9KY       0.126000
     62 H31         -4.7690    -2.5170     3.7520 ha         1 9KY       0.112000
     63 H32         -3.6800     0.7890     1.1930 ha         1 9KY       0.126000
     64 H33          1.6710    -3.0280     0.9960 ha         1 9KY       0.125500
     65 H34          1.9610    -1.4920    -3.7330 ha         1 9KY       0.124000
     66 H35          5.9780    -1.7300    -3.2630 ho         1 9KY       0.448000
     67 O10         -1.2510     2.2140     1.5570 o          1 9KY      -0.585100
     68 H2          -0.1340    -1.1680    -2.4690 ha         1 9KY       0.125500
@<TRIPOS>BOND
     1     1     5 1   
     2     1    14 2   
     3     2     3 1   
     4     2    16 1   
     5     2    67 2   
     6     3    15 1   
     7     3    22 1   
     8     3    33 1   
     9     4     5 ar  
    10     4    15 1   
    11     4    28 ar  
    12     5    26 ar  
    13     6    29 ar  
    14     6    31 ar  
    15     6    68 1   
    16     7     8 ar  
    17     7    30 ar  
    18     7    34 1   
    19     8     9 1   
    20     8    31 ar  
    21     9    32 1   
    22     9    35 1   
    23     9    36 1   
    24    10    22 1   
    25    10    23 1   
    26    10    37 1   
    27    10    38 1   
    28    11    17 1   
    29    11    18 1   
    30    11    39 1   
    31    11    40 1   
    32    12    27 ar  
    33    12    28 ar  
    34    12    41 1   
    35    13    24 1   
    36    13    25 1   
    37    13    42 1   
    38    13    43 1   
    39    14    15 1   
    40    14    29 1   
    41    16    17 1   
    42    16    44 1   
    43    17    21 1   
    44    17    45 1   
    45    18    19 1   
    46    18    46 1   
    47    18    47 1   
    48    19    20 1   
    49    19    48 1   
    50    19    49 1   
    51    20    21 1   
    52    20    50 1   
    53    20    51 1   
    54    21    52 1   
    55    21    53 1   
    56    22    25 1   
    57    22    54 1   
    58    23    24 1   
    59    23    55 1   
    60    23    56 1   
    61    24    57 1   
    62    24    58 1   
    63    25    59 1   
    64    25    60 1   
    65    26    27 ar  
    66    26    61 1   
    67    27    62 1   
    68    28    63 1   
    69    29    30 ar  
    70    30    64 1   
    71    31    65 1   
    72    32    66 1   
@<TRIPOS>SUBSTRUCTURE
     1 9KY         1 TEMP              0 ****  ****    0 ROOT
