@<TRIPOS>MOLECULE
9KY
   68    72     1     0     0
SMALL
bcc


@<TRIPOS>ATOM
      1 N3          -1.2740    -2.9320     0.8320 nc         1 9KY      -0.557100
      2 C4          -0.3530     1.2780     0.8890 c          1 9KY       0.652100
      3 C5          -0.9660     0.4920    -0.2740 c3         1 9KY      -0.015000
      4 C6          -2.5290    -1.0420     1.0370 ca         1 9KY      -0.057200
      5 C7          -2.4090    -2.3970     1.3870 ca         1 9KY       0.061400
      6 C13          0.5950    -1.9140    -1.9630 ca         1 9KY      -0.104000
      7 C15          2.9050    -2.5560    -0.5700 ca         1 9KY      -0.123500
      8 C17          2.9670    -2.3750    -1.9470 ca         1 9KY      -0.075300
      9 C21          4.2490    -2.5040    -2.7220 c3         1 9KY       0.184700
     10 C22         -1.3190     2.5050    -1.7030 c6         1 9KY      -0.073900
     11 C24          1.6030     3.7850     1.4740 c6         1 9KY      -0.089900
     12 C26         -4.5420    -0.8940     2.2770 ca         1 9KY      -0.118000
     13 C28         -3.7380     1.3240    -2.8690 c6         1 9KY      -0.072900
     14 C1          -0.7280    -1.9590     0.1610 cd         1 9KY       0.456400
     15 N2          -1.4390    -0.7860     0.2310 na         1 9KY      -0.142300
     16 N8           0.9600     1.5100     0.7770 ns         1 9KY      -0.565900
     17 C14          1.7340     2.2840     1.7330 c6         1 9KY       0.111700
     18 C31          2.4510     4.5890     2.4540 c6         1 9KY      -0.071900
     19 C32          3.9110     4.1530     2.4060 c6         1 9KY      -0.077400
     20 C30          4.0430     2.6530     2.6540 c6         1 9KY      -0.071900
     21 C25          3.1930     1.8450     1.6770 c6         1 9KY      -0.089900
     22 C11         -2.0130     1.3170    -1.0300 c6         1 9KY      -0.063700
     23 C29         -2.3010     3.3520    -2.5050 c6         1 9KY      -0.072900
     24 C33         -3.0500     2.5110    -3.5310 c6         1 9KY      -0.076400
     25 C23         -2.7570     0.4760    -2.0660 c6         1 9KY      -0.073900
     26 C19         -3.3710    -3.0130     2.1880 ca         1 9KY      -0.071000
     27 C27         -4.4360    -2.2490     2.6250 ca         1 9KY      -0.152000
     28 C18         -3.5960    -0.2670     1.4870 ca         1 9KY      -0.109000
     29 C9           0.5370    -2.0890    -0.5800 ca         1 9KY      -0.114900
     30 C12          1.7000    -2.4170     0.1050 ca         1 9KY      -0.104000
     31 C16          1.7960    -2.0570    -2.6330 ca         1 9KY      -0.123500
     32 O20          5.2930    -2.9050    -1.8750 oh         1 9KY      -0.594800
     33 H1          -0.1840     0.2580    -0.9970 h1         1 9KY       0.069700
     34 H3           3.7950    -2.8050    -0.0100 ha         1 9KY       0.142000
     35 H4           4.0910    -3.2210    -3.5390 h1         1 9KY       0.027700
     36 H5           4.4630    -1.5390    -3.2000 h1         1 9KY       0.027700
     37 H6          -0.8180     3.1310    -0.9600 hc         1 9KY       0.043200
     38 H7          -0.5340     2.1300    -2.3710 hc         1 9KY       0.043200
     39 H8           1.9310     3.9920     0.4490 hc         1 9KY       0.045200
     40 H9           0.5540     4.0830     1.5410 hc         1 9KY       0.045200
     41 H10         -5.3830    -0.3200     2.6440 ha         1 9KY       0.129000
     42 H11         -4.5290     1.6870    -2.2020 hc         1 9KY       0.042700
     43 H12         -4.2300     0.7020    -3.6190 hc         1 9KY       0.042700
     44 H13          1.4330     1.2080    -0.0590 hn         1 9KY       0.312500
     45 H14          1.3420     2.0610     2.7300 h1         1 9KY       0.078700
     46 H15          2.3620     5.6550     2.2320 hc         1 9KY       0.043950
     47 H16          2.0640     4.4520     3.4700 hc         1 9KY       0.043950
     48 H17          4.3310     4.3980     1.4240 hc         1 9KY       0.040200
     49 H18          4.4970     4.7070     3.1430 hc         1 9KY       0.040200
     50 H19          5.0870     2.3430     2.5770 hc         1 9KY       0.043950
     51 H20          3.7260     2.4270     3.6770 hc         1 9KY       0.043950
     52 H21          3.2690     0.7780     1.8980 hc         1 9KY       0.045200
     53 H22          3.5730     1.9880     0.6580 hc         1 9KY       0.045200
     54 H23         -2.7420     1.7260    -0.3250 hc         1 9KY       0.074700
     55 H24         -3.0190     3.8170    -1.8210 hc         1 9KY       0.042700
     56 H25         -1.7670     4.1680    -2.9950 hc         1 9KY       0.042700
     57 H26         -2.3450     2.1460    -4.2850 hc         1 9KY       0.039700
     58 H27         -3.7810     3.1250    -4.0630 hc         1 9KY       0.039700
     59 H28         -3.2930    -0.3450    -1.5860 hc         1 9KY       0.043200
     60 H29         -2.0310     0.0190    -2.7490 hc         1 9KY       0.043200
     61 H30         -3.2780    -4.0570     2.4550 ha         1 9KY       0.144000
     62 H31         -5.1990    -2.6980     3.2470 ha         1 9KY       0.130000
     63 H32         -3.6940     0.7800     1.2500 ha         1 9KY       0.144000
     64 H33          1.6690    -2.5590     1.1780 ha         1 9KY       0.143500
     65 H34          1.8210    -1.9240    -3.7090 ha         1 9KY       0.142000
     66 H35          6.1060    -2.9190    -2.3870 ho         1 9KY       0.409000
     67 O10         -1.0350     1.6320     1.8380 o          1 9KY      -0.585100
     68 H2          -0.3040    -1.6790    -2.5220 ha         1 9KY       0.143500
@<TRIPOS>BOND
     1     1     5 1   
     2     1    14 2   
     3     2     3 1   
     4     2    16 1   
     5     2    67 2   
     6     3    15 1   
     7     3    22 1   
     8     3    33 1   
     9     4     5 ar  
    10     4    15 1   
    11     4    28 ar  
    12     5    26 ar  
    13     6    29 ar  
    14     6    31 ar  
    15     6    68 1   
    16     7     8 ar  
    17     7    30 ar  
    18     7    34 1   
    19     8     9 1   
    20     8    31 ar  
    21     9    32 1   
    22     9    35 1   
    23     9    36 1   
    24    10    22 1   
    25    10    23 1   
    26    10    37 1   
    27    10    38 1   
    28    11    17 1   
    29    11    18 1   
    30    11    39 1   
    31    11    40 1   
    32    12    27 ar  
    33    12    28 ar  
    34    12    41 1   
    35    13    24 1   
    36    13    25 1   
    37    13    42 1   
    38    13    43 1   
    39    14    15 1   
    40    14    29 1   
    41    16    17 1   
    42    16    44 1   
    43    17    21 1   
    44    17    45 1   
    45    18    19 1   
    46    18    46 1   
    47    18    47 1   
    48    19    20 1   
    49    19    48 1   
    50    19    49 1   
    51    20    21 1   
    52    20    50 1   
    53    20    51 1   
    54    21    52 1   
    55    21    53 1   
    56    22    25 1   
    57    22    54 1   
    58    23    24 1   
    59    23    55 1   
    60    23    56 1   
    61    24    57 1   
    62    24    58 1   
    63    25    59 1   
    64    25    60 1   
    65    26    27 ar  
    66    26    61 1   
    67    27    62 1   
    68    28    63 1   
    69    29    30 ar  
    70    30    64 1   
    71    31    65 1   
    72    32    66 1   
@<TRIPOS>SUBSTRUCTURE
     1 9KY         1 TEMP              0 ****  ****    0 ROOT
