@<TRIPOS>MOLECULE
9KZ
   32    33     1     0     0
SMALL
abcg2


@<TRIPOS>ATOM
      1 C3           0.5210     0.0090    -0.3260 ca         1 9KZ      -0.183600
      2 C8          -4.3910    -0.1330     0.4790 ca         1 9KZ      -0.096000
      3 C9          -4.1080     1.2090     0.1630 ca         1 9KZ      -0.112000
      4 O1           2.3440     0.5640    -1.7620 o          1 9KZ      -0.481000
      5 C1           4.1440     0.3580     0.2390 c3         1 9KZ       0.164600
      6 C2           1.9510     0.2840    -0.6580 c          1 9KZ       0.613700
      7 C10         -2.8250     1.5990    -0.1180 ca         1 9KZ      -0.087000
      8 C4           0.1370    -1.3250     0.0040 ca         1 9KZ       0.410300
      9 C5           1.1540    -2.4270     0.0540 c3         1 9KZ      -0.154400
     10 C6          -2.0550    -0.6850     0.2220 ca         1 9KZ       0.289000
     11 C7          -3.3860    -1.0620     0.5080 ca         1 9KZ      -0.087000
     12 C12         -0.4160     1.0090    -0.3880 ca         1 9KZ       0.028700
     13 C11         -1.7670     0.6620    -0.0960 ca         1 9KZ      -0.093000
     14 O            2.7240     0.1750     0.4060 os         1 9KZ      -0.441100
     15 C            4.7980     0.1100     1.5750 c3         1 9KZ      -0.097100
     16 C13         -0.0810     2.4310    -0.7200 c3         1 9KZ      -0.062800
     17 N           -1.1010    -1.6460     0.2590 nb         1 9KZ      -0.676000
     18 H1          -5.4090    -0.4290     0.6990 ha         1 9KZ       0.118000
     19 H2          -4.9090     1.9360     0.1410 ha         1 9KZ       0.116000
     20 H3           4.5140    -0.3370    -0.5170 h1         1 9KZ       0.048700
     21 H4           4.3370     1.3730    -0.1130 h1         1 9KZ       0.048700
     22 H5          -2.6270     2.6350    -0.3590 ha         1 9KZ       0.116000
     23 H6           1.8030    -2.3280     0.9240 hc         1 9KZ       0.058033
     24 H7           0.6520    -3.3900     0.1150 hc         1 9KZ       0.058033
     25 H8           1.7940    -2.4310    -0.8300 hc         1 9KZ       0.058033
     26 H9          -3.5870    -2.0980     0.7480 ha         1 9KZ       0.133000
     27 H10          4.4400     0.8050     2.3340 hc         1 9KZ       0.047700
     28 H11          4.6250    -0.9080     1.9230 hc         1 9KZ       0.047700
     29 H12          5.8740     0.2510     1.4740 hc         1 9KZ       0.047700
     30 H13         -0.5930     2.7420    -1.6310 hc         1 9KZ       0.055700
     31 H14         -0.4130     3.0960     0.0780 hc         1 9KZ       0.055700
     32 H15          0.9810     2.6000    -0.8670 hc         1 9KZ       0.055700
@<TRIPOS>BOND
     1     1     6 1   
     2     1     8 ar  
     3     1    12 ar  
     4     2     3 ar  
     5     2    11 ar  
     6     2    18 1   
     7     3     7 ar  
     8     3    19 1   
     9     4     6 2   
    10     5    14 1   
    11     5    15 1   
    12     5    20 1   
    13     5    21 1   
    14     6    14 1   
    15     7    13 ar  
    16     7    22 1   
    17     8     9 1   
    18     8    17 ar  
    19     9    23 1   
    20     9    24 1   
    21     9    25 1   
    22    10    11 ar  
    23    10    13 ar  
    24    10    17 ar  
    25    11    26 1   
    26    12    13 ar  
    27    12    16 1   
    28    15    27 1   
    29    15    28 1   
    30    15    29 1   
    31    16    30 1   
    32    16    31 1   
    33    16    32 1   
@<TRIPOS>SUBSTRUCTURE
     1 9KZ         1 TEMP              0 ****  ****    0 ROOT
