@<TRIPOS>MOLECULE
9KZ
   32    33     1     0     0
SMALL
No Charge or Current Charge


@<TRIPOS>ATOM
      1 C3           0.5290     0.0060    -0.3470 ca         1 9KZ      -0.183600
      2 C8          -4.4480    -0.1270     0.4950 ca         1 9KZ      -0.096000
      3 C9          -4.1690     1.2040     0.1590 ca         1 9KZ      -0.112000
      4 O1           2.3460     0.5820    -1.7850 o          1 9KZ      -0.481000
      5 C1           4.1890     0.3550     0.2370 c3         1 9KZ       0.164600
      6 C2           1.9590     0.2830    -0.6640 c          1 9KZ       0.613700
      7 C10         -2.8530     1.5940    -0.1380 ca         1 9KZ      -0.087000
      8 C4           0.1530    -1.3050    -0.0090 ca         1 9KZ       0.410300
      9 C5           1.1460    -2.4590     0.0360 c3         1 9KZ      -0.154400
     10 C6          -2.0810    -0.7000     0.2350 ca         1 9KZ       0.289000
     11 C7          -3.4070    -1.0680     0.5300 ca         1 9KZ      -0.087000
     12 C12         -0.4580     1.0200    -0.3920 ca         1 9KZ       0.028700
     13 C11         -1.7960     0.6510    -0.1010 ca         1 9KZ      -0.093000
     14 O            2.7820     0.1340     0.4210 os         1 9KZ      -0.441100
     15 C            4.8720     0.1110     1.5920 c3         1 9KZ      -0.097100
     16 C13         -0.0950     2.4720    -0.7260 c3         1 9KZ      -0.062800
     17 N           -1.1200    -1.6450     0.2770 nb         1 9KZ      -0.676000
     18 H1          -5.4670    -0.4310     0.7250 ha         1 9KZ       0.118000
     19 H2          -4.9730     1.9370     0.1270 ha         1 9KZ       0.116000
     20 H3           4.6010    -0.3380    -0.5090 h1         1 9KZ       0.048700
     21 H4           4.3860     1.3830    -0.0940 h1         1 9KZ       0.048700
     22 H5          -2.6770     2.6340    -0.4000 ha         1 9KZ       0.116000
     23 H6           1.8070    -2.3690     0.9050 hc         1 9KZ       0.058033
     24 H7           0.6410    -3.4300     0.1070 hc         1 9KZ       0.058033
     25 H8           1.7680    -2.4820    -0.8660 hc         1 9KZ       0.058033
     26 H9          -3.6280    -2.1000     0.7880 ha         1 9KZ       0.133000
     27 H10          4.4840     0.8030     2.3490 hc         1 9KZ       0.047700
     28 H11          4.6970    -0.9160     1.9330 hc         1 9KZ       0.047700
     29 H12          5.9540     0.2670     1.5050 hc         1 9KZ       0.047700
     30 H13         -0.5230     2.7690    -1.6910 hc         1 9KZ       0.055700
     31 H14         -0.4780     3.1580     0.0390 hc         1 9KZ       0.055700
     32 H15          0.9840     2.6540    -0.7790 hc         1 9KZ       0.055700
@<TRIPOS>BOND
     1     1     6 1   
     2     1     8 ar  
     3     1    12 ar  
     4     2     3 ar  
     5     2    11 ar  
     6     2    18 1   
     7     3     7 ar  
     8     3    19 1   
     9     4     6 2   
    10     5    14 1   
    11     5    15 1   
    12     5    20 1   
    13     5    21 1   
    14     6    14 1   
    15     7    13 ar  
    16     7    22 1   
    17     8     9 1   
    18     8    17 ar  
    19     9    23 1   
    20     9    24 1   
    21     9    25 1   
    22    10    11 ar  
    23    10    13 ar  
    24    10    17 ar  
    25    11    26 1   
    26    12    13 ar  
    27    12    16 1   
    28    15    27 1   
    29    15    28 1   
    30    15    29 1   
    31    16    30 1   
    32    16    31 1   
    33    16    32 1   
@<TRIPOS>SUBSTRUCTURE
     1 9KZ         1 TEMP              0 ****  ****    0 ROOT
