@<TRIPOS>MOLECULE
9L0
   48    52     1     0     0
SMALL
No Charge or Current Charge


@<TRIPOS>ATOM
      1 C11        -14.8490   -24.6530    23.7310 cc         1 9L0       0.816400
      2 C13        -12.8640   -24.6400    22.1740 c3         1 9L0       0.300100
      3 C16        -11.8980   -27.6040    21.9060 c5         1 9L0      -0.061100
      4 C19        -11.7830   -27.2320    19.5760 ca         1 9L0       0.112100
      5 C17        -11.7130   -28.9170    21.0580 c5         1 9L0       0.148600
      6 C20        -11.8530   -26.5290    18.3670 ca         1 9L0      -0.102000
      7 C21        -12.2760   -25.1850    18.3970 ca         1 9L0      -0.116000
      8 C22        -12.6090   -24.5740    19.6250 ca         1 9L0       0.138000
      9 C26        -18.0940   -26.0400    24.0170 cc         1 9L0       0.173900
     10 C28        -16.8680   -24.6680    25.1130 cd         1 9L0      -0.017000
     11 C29        -19.2180   -26.8570    23.6860 cg         1 9L0       0.320700
     12 C01        -19.2540   -23.0680    26.5350 c3         1 9L0       0.074900
     13 C04        -17.0710   -22.5400    29.2220 cc         1 9L0       0.253300
     14 C05        -16.7480   -22.0370    30.5990 c3         1 9L0      -0.117400
     15 C06        -16.0800   -22.9010    28.3040 cc         1 9L0      -0.214000
     16 C07        -16.7320   -23.3490    27.1940 cd         1 9L0      -0.081000
     17 C08        -16.1850   -23.8450    25.9980 cc         1 9L0      -0.102000
     18 C09        -14.8460   -23.5160    25.7630 cd         1 9L0       0.409900
     19 C14        -12.5210   -25.2940    20.8410 ca         1 9L0      -0.099300
     20 C15        -12.0990   -26.6380    20.7780 ca         1 9L0      -0.112300
     21 C25        -16.9500   -25.9200    23.2680 cd         1 9L0      -0.233100
     22 N02        -18.1100   -23.1430    27.4630 na         1 9L0       0.153800
     23 N03        -18.2980   -22.6580    28.7570 nd         1 9L0      -0.519800
     24 N10        -14.1720   -23.9180    24.5990 nd         1 9L0      -0.781000
     25 N12        -14.2130   -25.0370    22.5920 nu         1 9L0      -0.934100
     26 N24        -16.1550   -25.0450    24.0060 na         1 9L0      -0.121400
     27 N27        -18.0320   -25.2890    25.1590 nc         1 9L0      -0.257600
     28 N30        -20.1270   -27.5320    23.3900 n1         1 9L0      -0.436000
     29 O18        -11.3770   -28.5320    19.6830 os         1 9L0      -0.327100
     30 H1         -12.1260   -24.9500    22.9270 h1         1 9L0       0.067700
     31 H2         -12.7970   -23.5470    22.0880 h1         1 9L0       0.067700
     32 H3         -11.0040   -27.3710    22.4960 hc         1 9L0       0.071700
     33 H4         -12.7530   -27.6690    22.5870 hc         1 9L0       0.071700
     34 H5         -12.6540   -29.4830    21.0280 h1         1 9L0       0.061200
     35 H6         -10.9340   -29.5770    21.4630 h1         1 9L0       0.061200
     36 H7         -11.5900   -27.0130    17.4300 ha         1 9L0       0.138000
     37 H8         -12.3460   -24.6140    17.4740 ha         1 9L0       0.137000
     38 H9         -19.9300   -22.2640    26.8510 h1         1 9L0       0.057700
     39 H10        -18.9050   -22.8430    25.5210 h1         1 9L0       0.057700
     40 H11        -19.8080   -24.0140    26.5510 h1         1 9L0       0.057700
     41 H12        -17.6540   -21.9220    31.2050 hc         1 9L0       0.045033
     42 H13        -16.0810   -22.7340    31.1190 hc         1 9L0       0.045033
     43 H14        -16.2480   -21.0630    30.5470 hc         1 9L0       0.045033
     44 H15        -15.0140   -22.8750    28.5030 ha         1 9L0       0.143000
     45 H16        -14.2610   -22.9000    26.4330 h4         1 9L0       0.036100
     46 H17        -16.6680   -26.3960    22.3340 h4         1 9L0       0.240000
     47 H18        -14.8230   -25.4470    21.8970 hn         1 9L0       0.513000
     48 F23        -13.0110   -23.2830    19.6240 f          1 9L0      -0.189000
@<TRIPOS>BOND
     1     1    24 2   
     2     1    25 1   
     3     1    26 1   
     4     2    19 1   
     5     2    25 1   
     6     2    30 1   
     7     2    31 1   
     8     3     5 1   
     9     3    20 1   
    10     3    32 1   
    11     3    33 1   
    12     4     6 ar  
    13     4    20 ar  
    14     4    29 1   
    15     5    29 1   
    16     5    34 1   
    17     5    35 1   
    18     6     7 ar  
    19     6    36 1   
    20     7     8 ar  
    21     7    37 1   
    22     8    19 ar  
    23     8    48 1   
    24     9    11 1   
    25     9    21 2   
    26     9    27 1   
    27    10    17 1   
    28    10    26 1   
    29    10    27 2   
    30    11    28 3   
    31    12    22 1   
    32    12    38 1   
    33    12    39 1   
    34    12    40 1   
    35    13    14 1   
    36    13    15 1   
    37    13    23 2   
    38    14    41 1   
    39    14    42 1   
    40    14    43 1   
    41    15    16 2   
    42    15    44 1   
    43    16    17 1   
    44    16    22 1   
    45    17    18 2   
    46    18    24 1   
    47    18    45 1   
    48    19    20 ar  
    49    21    26 1   
    50    21    46 1   
    51    22    23 1   
    52    25    47 1   
@<TRIPOS>SUBSTRUCTURE
     1 9L0         1 TEMP              0 ****  ****    0 ROOT
