@<TRIPOS>MOLECULE
9L0
   48    52     1     0     0
SMALL
abcg2


@<TRIPOS>ATOM
      1 C11        -15.4620   -24.2480    22.4900 cc         1 9L0       0.816400
      2 C13        -13.7720   -24.2090    20.7380 c3         1 9L0       0.300100
      3 C16        -11.0860   -24.4830    22.3940 c5         1 9L0      -0.061100
      4 C19        -11.2400   -26.7740    21.9590 ca         1 9L0       0.112100
      5 C17        -10.1030   -25.3090    23.2360 c5         1 9L0       0.148600
      6 C20        -11.7220   -27.9670    21.4570 ca         1 9L0      -0.102000
      7 C21        -12.8960   -27.9230    20.7080 ca         1 9L0      -0.116000
      8 C22        -13.5330   -26.7180    20.4990 ca         1 9L0       0.138000
      9 C26        -18.9540   -24.2920    22.9680 cc         1 9L0       0.173900
     10 C28        -17.2030   -24.3420    24.1570 cd         1 9L0      -0.017000
     11 C29        -20.3400   -24.2820    22.6580 cg         1 9L0       0.320700
     12 C01        -17.8480   -22.3960    26.7980 c3         1 9L0       0.074900
     13 C04        -16.8060   -25.1530    28.6730 cc         1 9L0       0.253300
     14 C05        -16.7780   -25.8720    29.9780 c3         1 9L0      -0.117400
     15 C06        -16.2100   -25.5320    27.4580 cc         1 9L0      -0.214000
     16 C07        -16.5410   -24.5300    26.5710 cd         1 9L0      -0.081000
     17 C08        -16.2010   -24.3890    25.1590 cc         1 9L0      -0.102000
     18 C09        -14.9120   -24.3540    24.7110 cd         1 9L0       0.409900
     19 C14        -13.0600   -25.5090    21.0030 ca         1 9L0      -0.099300
     20 C15        -11.8930   -25.5670    21.7420 ca         1 9L0      -0.112300
     21 C25        -17.9330   -24.2300    22.0630 cd         1 9L0      -0.233100
     22 N02        -17.2780   -23.6360    27.2660 na         1 9L0       0.153800
     23 N03        -17.4480   -24.0060    28.5340 nd         1 9L0      -0.519800
     24 N10        -14.5480   -24.2830    23.4140 nd         1 9L0      -0.781000
     25 N12        -15.1460   -24.1880    21.1970 nu         1 9L0      -0.934100
     26 N24        -16.8000   -24.2640    22.8320 na         1 9L0      -0.121400
     27 N27        -18.5080   -24.3630    24.2540 nc         1 9L0      -0.257600
     28 N30        -21.4630   -24.2710    22.4060 n1         1 9L0      -0.436000
     29 O18        -10.1190   -26.6430    22.7000 os         1 9L0      -0.327100
     30 H1         -13.2220   -23.3880    21.1990 h1         1 9L0       0.067700
     31 H2         -13.8030   -24.0030    19.6690 h1         1 9L0       0.067700
     32 H3         -10.5750   -23.8680    21.6490 hc         1 9L0       0.071700
     33 H4         -11.6890   -23.8190    23.0120 hc         1 9L0       0.071700
     34 H5         -10.4230   -25.3510    24.2810 h1         1 9L0       0.061200
     35 H6          -9.0810   -24.9360    23.2000 h1         1 9L0       0.061200
     36 H7         -11.2150   -28.9060    21.6320 ha         1 9L0       0.138000
     37 H8         -13.3130   -28.8310    20.2910 ha         1 9L0       0.137000
     38 H9         -17.7710   -21.6520    27.5860 h1         1 9L0       0.057700
     39 H10        -17.2930   -22.0440    25.9320 h1         1 9L0       0.057700
     40 H11        -18.8930   -22.5200    26.5190 h1         1 9L0       0.057700
     41 H12        -17.3470   -25.3300    30.7320 hc         1 9L0       0.045033
     42 H13        -17.2030   -26.8730    29.8890 hc         1 9L0       0.045033
     43 H14        -15.7580   -25.9890    30.3460 hc         1 9L0       0.045033
     44 H15        -15.6340   -26.4180    27.2450 ha         1 9L0       0.143000
     45 H16        -14.0960   -24.3820    25.4240 h4         1 9L0       0.036100
     46 H17        -17.9510   -24.1650    20.9880 h4         1 9L0       0.240000
     47 H18        -15.8660   -24.2160    20.4950 hn         1 9L0       0.513000
     48 F23        -14.6660   -26.7030    19.7670 f          1 9L0      -0.189000
@<TRIPOS>BOND
     1     1    24 2   
     2     1    25 1   
     3     1    26 1   
     4     2    19 1   
     5     2    25 1   
     6     2    30 1   
     7     2    31 1   
     8     3     5 1   
     9     3    20 1   
    10     3    32 1   
    11     3    33 1   
    12     4     6 ar  
    13     4    20 ar  
    14     4    29 1   
    15     5    29 1   
    16     5    34 1   
    17     5    35 1   
    18     6     7 ar  
    19     6    36 1   
    20     7     8 ar  
    21     7    37 1   
    22     8    19 ar  
    23     8    48 1   
    24     9    11 1   
    25     9    21 2   
    26     9    27 1   
    27    10    17 1   
    28    10    26 1   
    29    10    27 2   
    30    11    28 3   
    31    12    22 1   
    32    12    38 1   
    33    12    39 1   
    34    12    40 1   
    35    13    14 1   
    36    13    15 1   
    37    13    23 2   
    38    14    41 1   
    39    14    42 1   
    40    14    43 1   
    41    15    16 2   
    42    15    44 1   
    43    16    17 1   
    44    16    22 1   
    45    17    18 2   
    46    18    24 1   
    47    18    45 1   
    48    19    20 ar  
    49    21    26 1   
    50    21    46 1   
    51    22    23 1   
    52    25    47 1   
@<TRIPOS>SUBSTRUCTURE
     1 9L0         1 TEMP              0 ****  ****    0 ROOT
