@<TRIPOS>MOLECULE
9L1
   82    86     1     0     0
SMALL
No Charge or Current Charge


@<TRIPOS>ATOM
      1 C4          -6.4610     1.1120    -0.4330 ca         1 9L1      -0.126500
      2 C5          -7.6590     1.0560    -1.1810 ca         1 9L1      -0.157100
      3 C6          -8.2070    -0.2120    -1.4830 ca         1 9L1      -0.063000
      4 C8          -8.3480     2.3300    -1.6540 c          1 9L1       0.715100
      5 C15          4.7830     0.8760    -0.6850 c6         1 9L1      -0.042700
      6 C17          2.2490     0.7020    -1.4380 c5         1 9L1      -0.071400
      7 C20          1.2180     0.0970     0.7530 c5         1 9L1      -0.051700
      8 C21          3.4430     0.2980     2.1520 c6         1 9L1      -0.062400
      9 C24          7.3540     0.8440    -0.0300 c6         1 9L1      -0.030000
     10 C26          6.6360     0.8030    -2.5080 c6         1 9L1      -0.067400
     11 C28          7.6830     0.3100    -1.4740 c6         1 9L1      -0.047700
     12 C1          -7.5810    -1.4060    -1.0550 ca         1 9L1      -0.157100
     13 C11         -8.1900    -2.7600    -1.3970 c          1 9L1       0.715100
     14 C14          3.3240     0.3490    -0.3670 c5         1 9L1      -0.067700
     15 C16          2.6210     0.8260     0.9580 c5         1 9L1      -0.038000
     16 C18          5.8720     0.4160     0.3700 c6         1 9L1      -0.045700
     17 C19          5.1930     0.4090    -2.1190 c6         1 9L1      -0.072400
     18 C2          -6.3830    -1.3140    -0.3070 ca         1 9L1      -0.126500
     19 C23          0.8830     0.4700    -0.7310 c5         1 9L1      -0.077400
     20 C25          5.4820     0.8780     1.7990 c6         1 9L1      -0.070400
     21 C27         -0.0020     0.3490     1.7370 c3         1 9L1      -0.051700
     22 C29          8.4370     0.2630     0.9500 c6         1 9L1      -0.065400
     23 C3          -5.8210    -0.0590     0.0090 ca         1 9L1      -0.127000
     24 C30          7.5230     2.4060     0.0020 c3         1 9L1      -0.082100
     25 C31         -1.2570    -0.4830     1.3170 c3         1 9L1      -0.066400
     26 C32          0.3550     0.1050     3.2240 c3         1 9L1      -0.085100
     27 C33          7.8330    -1.2460    -1.5260 c6         1 9L1      -0.072400
     28 C34          8.5620    -1.2810     0.9080 c6         1 9L1      -0.111400
     29 C35         -2.5660    -0.1600     2.0870 c3         1 9L1      -0.165400
     30 C36          8.8930    -1.7580    -0.5240 c6         1 9L1       0.171300
     31 C37         -3.7870    -0.8070     1.4140 c          1 9L1       0.584100
     32 N7          -4.6160     0.0980     0.7550 ns         1 9L1      -0.121000
     33 O10         -7.8470     3.4090    -1.3720 o          1 9L1      -0.743750
     34 O12         -7.6180    -3.7750    -1.0250 o          1 9L1      -0.743750
     35 O13         -9.2330    -2.7910    -2.0340 o          1 9L1      -0.743750
     36 O38          8.9550    -3.1860    -0.5600 oh         1 9L1      -0.660000
     37 O39         -3.9970    -2.0120     1.5010 o          1 9L1      -0.598100
     38 O9          -9.3810     2.2330    -2.3020 o          1 9L1      -0.743750
     39 H1          -6.0230     2.0780    -0.1910 ha         1 9L1       0.119000
     40 H2          -9.1290    -0.2700    -2.0580 ha         1 9L1       0.145000
     41 H3           4.7400     1.9730    -0.6940 hc         1 9L1       0.046700
     42 H5           2.3410     0.0720    -2.3300 hc         1 9L1       0.036200
     43 H6           1.4920    -1.6180     0.8270 hc         1 9L1       0.047700
     44 H7           3.1140     0.7090     3.1120 hc         1 9L1       0.042700
     45 H8           3.3770    -0.7960     2.2160 hc         1 9L1       0.042700
     46 H12          6.7000     1.8930    -2.6240 hc         1 9L1       0.035700
     47 H13          6.8710     0.3920    -3.4990 hc         1 9L1       0.035700
     48 H14          8.6540     0.7270    -1.7780 hc         1 9L1       0.034700
     49 H15          3.4440    -0.7400    -0.3350 hc         1 9L1       0.045700
     50 H16          5.8240    -0.6790     0.3940 hc         1 9L1       0.049700
     51 H17          5.0650    -0.6770    -2.2100 hc         1 9L1       0.041200
     52 H18          4.5200     0.8510    -2.8650 hc         1 9L1       0.041200
     53 H19         -5.8990    -2.2300     0.0150 ha         1 9L1       0.119000
     54 H20          0.2630     1.3730    -0.7920 hc         1 9L1       0.050200
     55 H21          0.3200    -0.3300    -1.2240 hc         1 9L1       0.050200
     56 H22          5.5670     1.9660     1.9080 hc         1 9L1       0.032700
     57 H23          6.1180     0.4170     2.5640 hc         1 9L1       0.032700
     58 H24         -0.2840     1.4060     1.6540 hc         1 9L1       0.040700
     59 H25          9.4180     0.6870     0.6920 hc         1 9L1       0.036700
     60 H26          8.2550     0.5900     1.9820 hc         1 9L1       0.036700
     61 H27          7.4830     2.7990     1.0240 hc         1 9L1       0.031033
     62 H28          8.4950     2.7070    -0.4070 hc         1 9L1       0.031033
     63 H29          6.7590     2.9350    -0.5760 hc         1 9L1       0.031033
     64 H30         -1.4630    -0.3100     0.2550 hc         1 9L1       0.054700
     65 H31         -1.0340    -1.5530     1.4160 hc         1 9L1       0.054700
     66 H32          1.0210     0.8890     3.5940 hc         1 9L1       0.029367
     67 H33         -0.5270     0.1360     3.8720 hc         1 9L1       0.029367
     68 H34          0.8410    -0.8690     3.3530 hc         1 9L1       0.029367
     69 H35          6.8770    -1.7450    -1.3240 hc         1 9L1       0.054200
     70 H36          8.1240    -1.5510    -2.5410 hc         1 9L1       0.054200
     71 H37          9.3560    -1.5980     1.5970 hc         1 9L1       0.046200
     72 H38          7.6370    -1.7520     1.2680 hc         1 9L1       0.046200
     73 H39         -2.4930    -0.5540     3.1060 hc         1 9L1       0.044200
     74 H40         -2.6920     0.9300     2.1160 hc         1 9L1       0.044200
     75 H41          9.8690    -1.3400    -0.8110 h1         1 9L1       0.018700
     76 H42         -4.2980     1.0570     0.8110 hn         1 9L1       0.126000
     77 H44          9.6630    -3.4500     0.0670 ho         1 9L1       0.437000
     78 C22          2.4980     2.3760     1.1050 c3         1 9L1      -0.077100
     79 H9           3.4820     2.8530     1.1560 hc         1 9L1       0.030033
     80 H10          1.9530     2.8420     0.2780 hc         1 9L1       0.030033
     81 H11          1.9650     2.6420     2.0260 hc         1 9L1       0.030033
     82 H4           2.3430     1.7400    -1.7790 hc         1 9L1       0.036200
@<TRIPOS>BOND
     1     1     2 ar  
     2     1    23 ar  
     3     1    39 1   
     4     2     3 ar  
     5     2     4 1   
     6     3    12 ar  
     7     3    40 1   
     8     4    33 1   
     9     4    38 1   
    10     5    14 1   
    11     5    16 1   
    12     5    17 1   
    13     5    41 1   
    14     6    14 1   
    15     6    19 1   
    16     6    42 1   
    17     6    82 1   
    18     7    15 1   
    19     7    19 1   
    20     7    21 1   
    21     7    43 1   
    22     8    15 1   
    23     8    20 1   
    24     8    44 1   
    25     8    45 1   
    26     9    11 1   
    27     9    16 1   
    28     9    22 1   
    29     9    24 1   
    30    10    11 1   
    31    10    17 1   
    32    10    46 1   
    33    10    47 1   
    34    11    27 1   
    35    11    48 1   
    36    12    13 1   
    37    12    18 ar  
    38    13    34 1   
    39    13    35 1   
    40    14    15 1   
    41    14    49 1   
    42    15    78 1   
    43    16    20 1   
    44    16    50 1   
    45    17    51 1   
    46    17    52 1   
    47    18    23 ar  
    48    18    53 1   
    49    19    54 1   
    50    19    55 1   
    51    20    56 1   
    52    20    57 1   
    53    21    25 1   
    54    21    26 1   
    55    21    58 1   
    56    22    28 1   
    57    22    59 1   
    58    22    60 1   
    59    23    32 1   
    60    24    61 1   
    61    24    62 1   
    62    24    63 1   
    63    25    29 1   
    64    25    64 1   
    65    25    65 1   
    66    26    66 1   
    67    26    67 1   
    68    26    68 1   
    69    27    30 1   
    70    27    69 1   
    71    27    70 1   
    72    28    30 1   
    73    28    71 1   
    74    28    72 1   
    75    29    31 1   
    76    29    73 1   
    77    29    74 1   
    78    30    36 1   
    79    30    75 1   
    80    31    32 1   
    81    31    37 2   
    82    32    76 1   
    83    36    77 1   
    84    78    79 1   
    85    78    80 1   
    86    78    81 1   
@<TRIPOS>SUBSTRUCTURE
     1 9L1         1 TEMP              0 ****  ****    0 ROOT
