@<TRIPOS>MOLECULE
9L1
   82    86     1     0     0
SMALL
abcg2


@<TRIPOS>ATOM
      1 C4          -6.9650     0.9820     0.0480 ca         1 9L1      -0.126500
      2 C5          -8.2980     0.7000    -0.2140 ca         1 9L1      -0.157100
      3 C6          -8.6830    -0.6250    -0.3890 ca         1 9L1      -0.063000
      4 C8          -9.3140     1.8340    -0.3040 c          1 9L1       0.715100
      5 C15          5.0320     0.9810    -0.8210 c6         1 9L1      -0.042700
      6 C17          2.6590     1.0040    -1.9360 c5         1 9L1      -0.071400
      7 C20          1.4170     0.2430     0.0820 c5         1 9L1      -0.051700
      8 C21          3.5390     0.1280     1.6120 c6         1 9L1      -0.062400
      9 C24          7.2640     0.6670     0.4160 c6         1 9L1      -0.030000
     10 C26          7.2130     1.0460    -2.1010 c6         1 9L1      -0.067400
     11 C28          7.9300     0.3490    -0.9450 c6         1 9L1      -0.047700
     12 C1          -7.7520    -1.6540    -0.3080 ca         1 9L1      -0.157100
     13 C11         -8.1800    -3.1060    -0.4980 c          1 9L1       0.715100
     14 C14          3.5840     0.5130    -0.8300 c5         1 9L1      -0.067700
     15 C16          2.8040     0.8190     0.4640 c5         1 9L1      -0.038000
     16 C18          5.7600     0.2970     0.3520 c6         1 9L1      -0.045700
     17 C19          5.7290     0.6990    -2.1500 c6         1 9L1      -0.072400
     18 C2          -6.4160    -1.3590    -0.0470 ca         1 9L1      -0.126500
     19 C23          1.2520     0.6710    -1.4030 c5         1 9L1      -0.077400
     20 C25          5.0140     0.5310     1.6680 c6         1 9L1      -0.070400
     21 C27          0.1960     0.6130     0.9360 c3         1 9L1      -0.051700
     22 C29          8.0100    -0.1300     1.5010 c6         1 9L1      -0.065400
     23 C3          -6.0160    -0.0370     0.1370 ca         1 9L1      -0.127000
     24 C30          7.4560     2.1510     0.7530 c3         1 9L1      -0.082100
     25 C31         -1.0490    -0.1020     0.3910 c3         1 9L1      -0.066400
     26 C32          0.3850     0.2850     2.4160 c3         1 9L1      -0.085100
     27 C33          8.0520    -1.1560    -1.2100 c6         1 9L1      -0.072400
     28 C34          8.0850    -1.6280     1.2390 c6         1 9L1      -0.111400
     29 C35         -2.3590     0.4110     0.9750 c3         1 9L1      -0.165400
     30 C36          8.7720    -1.8890    -0.0930 c6         1 9L1       0.171300
     31 C37         -3.5670    -0.3760     0.5100 c          1 9L1       0.584100
     32 N7          -4.7020     0.3600     0.4290 ns         1 9L1      -0.121000
     33 O10         -8.8770     2.9910    -0.1450 o          1 9L1      -0.743750
     34 O12         -7.2810    -3.9690    -0.4500 o          1 9L1      -0.743750
     35 O13         -9.3950    -3.3110    -0.6840 o          1 9L1      -0.743750
     36 O38          8.8120    -3.2640    -0.4260 oh         1 9L1      -0.660000
     37 O39         -3.5120    -1.5700     0.2670 o          1 9L1      -0.598100
     38 O9         -10.4950     1.5100    -0.5290 o          1 9L1      -0.743750
     39 H1          -6.6630     2.0130     0.1900 ha         1 9L1       0.119000
     40 H2          -9.7190    -0.8580    -0.5910 ha         1 9L1       0.145000
     41 H3           5.0460     2.0680    -0.6720 hc         1 9L1       0.046700
     42 H5           2.8660     0.5240    -2.8950 hc         1 9L1       0.036200
     43 H6           1.5170    -0.8520     0.1180 hc         1 9L1       0.047700
     44 H7           3.0850     0.3570     2.5780 hc         1 9L1       0.042700
     45 H8           3.4590    -0.9580     1.4830 hc         1 9L1       0.042700
     46 H12          7.3280     2.1290    -2.0030 hc         1 9L1       0.035700
     47 H13          7.6930     0.7740    -3.0460 hc         1 9L1       0.035700
     48 H14          8.9540     0.7440    -0.8940 hc         1 9L1       0.034700
     49 H15          3.6150    -0.5850    -0.9090 hc         1 9L1       0.045700
     50 H16          5.6940    -0.7810     0.1540 hc         1 9L1       0.049700
     51 H17          5.5980    -0.3560    -2.4170 hc         1 9L1       0.041200
     52 H18          5.2470     1.2680    -2.9500 hc         1 9L1       0.041200
     53 H19         -5.7070    -2.1660     0.0110 ha         1 9L1       0.119000
     54 H20          0.5890     1.5380    -1.4730 hc         1 9L1       0.050200
     55 H21          0.7840    -0.1200    -1.9910 hc         1 9L1       0.050200
     56 H22          5.0900     1.5820     1.9620 hc         1 9L1       0.032700
     57 H23          5.4920    -0.0350     2.4710 hc         1 9L1       0.032700
     58 H24          0.0370     1.6950     0.8390 hc         1 9L1       0.040700
     59 H25          9.0340     0.2610     1.5580 hc         1 9L1       0.036700
     60 H26          7.5770     0.0590     2.4850 hc         1 9L1       0.036700
     61 H27          7.1560     2.3610     1.7800 hc         1 9L1       0.031033
     62 H28          8.5090     2.4290     0.6630 hc         1 9L1       0.031033
     63 H29          6.8870     2.8220     0.1100 hc         1 9L1       0.031033
     64 H30         -1.0970     0.0120    -0.6940 hc         1 9L1       0.054700
     65 H31         -0.9520    -1.1740     0.5830 hc         1 9L1       0.054700
     66 H32          1.1340     0.9190     2.8850 hc         1 9L1       0.029367
     67 H33         -0.5350     0.4230     2.9830 hc         1 9L1       0.029367
     68 H34          0.6990    -0.7530     2.5490 hc         1 9L1       0.029367
     69 H35          7.0640    -1.6090    -1.3480 hc         1 9L1       0.054200
     70 H36          8.5910    -1.3020    -2.1510 hc         1 9L1       0.054200
     71 H37          8.6400    -2.1130     2.0490 hc         1 9L1       0.046200
     72 H38          7.0870    -2.0760     1.2320 hc         1 9L1       0.046200
     73 H39         -2.3550     0.3420     2.0680 hc         1 9L1       0.044200
     74 H40         -2.4780     1.4740     0.7450 hc         1 9L1       0.044200
     75 H41          9.7960    -1.4880    -0.0240 h1         1 9L1       0.018700
     76 H42         -4.5990     1.3450     0.6230 hn         1 9L1       0.126000
     77 H44          9.2480    -3.7320     0.2930 ho         1 9L1       0.437000
     78 C22          2.6900     2.3250     0.7240 c3         1 9L1      -0.077100
     79 H9           3.6600     2.8220     0.7530 hc         1 9L1       0.030033
     80 H10          2.0940     2.8320    -0.0360 hc         1 9L1       0.030033
     81 H11          2.2120     2.5180     1.6860 hc         1 9L1       0.030033
     82 H4           2.7810     2.0790    -2.0930 hc         1 9L1       0.036200
@<TRIPOS>BOND
     1     1     2 ar  
     2     1    23 ar  
     3     1    39 1   
     4     2     3 ar  
     5     2     4 1   
     6     3    12 ar  
     7     3    40 1   
     8     4    33 1   
     9     4    38 1   
    10     5    14 1   
    11     5    16 1   
    12     5    17 1   
    13     5    41 1   
    14     6    14 1   
    15     6    19 1   
    16     6    42 1   
    17     6    82 1   
    18     7    15 1   
    19     7    19 1   
    20     7    21 1   
    21     7    43 1   
    22     8    15 1   
    23     8    20 1   
    24     8    44 1   
    25     8    45 1   
    26     9    11 1   
    27     9    16 1   
    28     9    22 1   
    29     9    24 1   
    30    10    11 1   
    31    10    17 1   
    32    10    46 1   
    33    10    47 1   
    34    11    27 1   
    35    11    48 1   
    36    12    13 1   
    37    12    18 ar  
    38    13    34 1   
    39    13    35 1   
    40    14    15 1   
    41    14    49 1   
    42    15    78 1   
    43    16    20 1   
    44    16    50 1   
    45    17    51 1   
    46    17    52 1   
    47    18    23 ar  
    48    18    53 1   
    49    19    54 1   
    50    19    55 1   
    51    20    56 1   
    52    20    57 1   
    53    21    25 1   
    54    21    26 1   
    55    21    58 1   
    56    22    28 1   
    57    22    59 1   
    58    22    60 1   
    59    23    32 1   
    60    24    61 1   
    61    24    62 1   
    62    24    63 1   
    63    25    29 1   
    64    25    64 1   
    65    25    65 1   
    66    26    66 1   
    67    26    67 1   
    68    26    68 1   
    69    27    30 1   
    70    27    69 1   
    71    27    70 1   
    72    28    30 1   
    73    28    71 1   
    74    28    72 1   
    75    29    31 1   
    76    29    73 1   
    77    29    74 1   
    78    30    36 1   
    79    30    75 1   
    80    31    32 1   
    81    31    37 2   
    82    32    76 1   
    83    36    77 1   
    84    78    79 1   
    85    78    80 1   
    86    78    81 1   
@<TRIPOS>SUBSTRUCTURE
     1 9L1         1 TEMP              0 ****  ****    0 ROOT
