@<TRIPOS>MOLECULE
9L2
   41    43     1     0     0
SMALL
bcc


@<TRIPOS>ATOM
      1 N6           2.9800     3.3820     0.1670 oh         1 9L2      -0.309000
      2 N6           3.3220     2.3340    -0.7080 c3         1 9L2      -0.002000
      3 N5           3.0500     1.0130    -0.0220 c6         1 9L2       0.008000
      4 N4           3.5000    -0.1820    -0.8690 c6         1 9L2      -0.032000
      5 N4           4.9010    -0.1990    -1.0490 oh         1 9L2      -0.331000
      6 N3           3.1200    -1.4770    -0.1610 c6         1 9L2       0.002000
      7 N3           3.4060    -2.6060    -0.9490 oh         1 9L2      -0.324000
      8 N5           1.6590     0.9330     0.2070 os         1 9L2      -0.226000
      9 N1           1.2620    -0.2130     0.9230 c6         1 9L2       0.001500
     10 N2           1.6340    -1.5010     0.1820 c6         1 9L2      -0.062000
     11 N2           1.2130    -2.6320     0.9840 n8         1 9L2      -0.308000
     12 N15         -0.2140    -0.1220     1.1090 cc         1 9L2       0.268300
     13 N1          -0.8230    -0.0800     2.3110 na         1 9L2      -0.167000
     14 N14         -2.1640     0.0110     2.1010 cc         1 9L2      -0.151000
     15 N13         -2.3170     0.0270     0.7360 cd         1 9L2       0.095800
     16 N5          -1.0890    -0.0590     0.1400 n2         1 9L2      -0.466600
     17 N12         -3.5480     0.1200    -0.0480 cz         1 9L2       0.010000
     18 N7          -3.5020     0.0690    -1.4430 ca         1 9L2      -0.114000
     19 N8          -4.6640     0.1570    -2.1950 ca         1 9L2      -0.134000
     20 N9          -5.8960     0.3000    -1.5720 ca         1 9L2      -0.131000
     21 N10         -5.9540     0.3530    -0.1850 ca         1 9L2      -0.134000
     22 N11         -4.7940     0.2650     0.5690 ca         1 9L2      -0.114000
     23 N1           3.1880     4.2130    -0.2690 hn         1 9L2       0.205000
     24 N2           2.7440     2.3760    -1.6410 hn         1 9L2       0.066000
     25 N3           4.3830     2.3710    -0.9820 hn         1 9L2       0.066000
     26 N4           3.5980     0.9900     0.9350 hn         1 9L2       0.097000
     27 N5           2.9780    -0.1440    -1.8350 hn         1 9L2       0.102000
     28 N6           5.1230     0.2910    -1.8450 hn         1 9L2       0.211000
     29 N7           3.6860    -1.5130     0.7880 hn         1 9L2       0.075000
     30 N8           4.3440    -2.5880    -1.1630 hn         1 9L2       0.220000
     31 N9           1.7460    -0.2300     1.9140 hn         1 9L2       0.071000
     32 N10          1.0590    -1.5190    -0.7500 hn         1 9L2       0.144000
     33 N11          1.2900    -3.4850     0.4450 hn         1 9L2       0.142500
     34 N12          1.8350    -2.7450     1.7770 hn         1 9L2       0.142500
     35 N14         -0.3710    -0.1160     3.2120 hn         1 9L2       0.251000
     36 N15         -2.8670     0.0520     2.9150 hn         1 9L2       0.176000
     37 N17         -2.5470    -0.0440    -1.9390 hn         1 9L2       0.136500
     38 N18         -4.6040     0.1160    -3.2750 hn         1 9L2       0.126000
     39 N19         -6.8020     0.3700    -2.1610 hn         1 9L2       0.127000
     40 N20         -6.9080     0.4670     0.3150 hn         1 9L2       0.126000
     41 N21         -4.8650     0.3120     1.6490 hn         1 9L2       0.136500
@<TRIPOS>BOND
     1     1     2 1   
     2     1    23 1   
     3     2     3 1   
     4     2    24 1   
     5     2    25 1   
     6     3     4 1   
     7     3     8 1   
     8     3    26 1   
     9     4     5 1   
    10     4     6 1   
    11     4    27 1   
    12     5    28 1   
    13     6     7 1   
    14     6    10 1   
    15     6    29 1   
    16     7    30 1   
    17     8     9 1   
    18     9    10 1   
    19     9    12 1   
    20     9    31 1   
    21    10    11 1   
    22    10    32 1   
    23    11    33 1   
    24    11    34 1   
    25    12    13 1   
    26    12    16 2   
    27    13    14 1   
    28    13    35 1   
    29    14    15 2   
    30    14    36 1   
    31    15    16 1   
    32    15    17 1   
    33    17    18 1   
    34    17    22 2   
    35    18    19 ar  
    36    18    37 1   
    37    19    20 ar  
    38    19    38 1   
    39    20    21 ar  
    40    20    39 1   
    41    21    22 ar  
    42    21    40 1   
    43    22    41 1   
@<TRIPOS>SUBSTRUCTURE
     1 9L2         1 TEMP              0 ****  ****    0 ROOT
