@<TRIPOS>MOLECULE
9L2
   41    43     1     0     0
SMALL
abcg2


@<TRIPOS>ATOM
      1 O6           2.9800     3.3820     0.1670 oh         1 9L2      -0.704000
      2 C6           3.3220     2.3340    -0.7080 c3         1 9L2       0.171600
      3 C5           3.0500     1.0130    -0.0220 c6         1 9L2       0.142300
      4 C4           3.5000    -0.1820    -0.8690 c6         1 9L2       0.102300
      5 O4           4.9010    -0.1990    -1.0490 oh         1 9L2      -0.726000
      6 C3           3.1200    -1.4770    -0.1610 c6         1 9L2       0.136300
      7 O3           3.4060    -2.6060    -0.9490 oh         1 9L2      -0.659000
      8 O5           1.6590     0.9330     0.2070 os         1 9L2      -0.416000
      9 C1           1.2620    -0.2130     0.9230 c6         1 9L2       0.160000
     10 C2           1.6340    -1.5010     0.1820 c6         1 9L2       0.135500
     11 N2           1.2130    -2.6320     0.9840 n8         1 9L2      -0.986200
     12 C15         -0.2140    -0.1220     1.1090 cc         1 9L2       0.425800
     13 N1          -0.8230    -0.0800     2.3110 na         1 9L2      -0.280500
     14 C14         -2.1640     0.0110     2.1010 cc         1 9L2      -0.208000
     15 C13         -2.3170     0.0270     0.7360 cd         1 9L2       0.296500
     16 N5          -1.0890    -0.0590     0.1400 nd         1 9L2      -0.653000
     17 C12         -3.5480     0.1200    -0.0480 ca         1 9L2      -0.097500
     18 C7          -3.5020     0.0690    -1.4430 ca         1 9L2      -0.096000
     19 C8          -4.6640     0.1570    -2.1950 ca         1 9L2      -0.116000
     20 C9          -5.8960     0.3000    -1.5720 ca         1 9L2      -0.113000
     21 C10         -5.9540     0.3530    -0.1850 ca         1 9L2      -0.116000
     22 C11         -4.7940     0.2650     0.5690 ca         1 9L2      -0.096000
     23 H1           3.1880     4.2130    -0.2690 ho         1 9L2       0.505000
     24 H2           2.7440     2.3760    -1.6410 h1         1 9L2       0.026700
     25 H3           4.3830     2.3710    -0.9820 h1         1 9L2       0.026700
     26 H4           3.5980     0.9900     0.9350 h1         1 9L2       0.057700
     27 H5           2.9780    -0.1440    -1.8350 h1         1 9L2       0.062700
     28 H6           5.1230     0.2910    -1.8450 ho         1 9L2       0.511000
     29 H7           3.6860    -1.5130     0.7880 h1         1 9L2       0.035700
     30 H8           4.3440    -2.5880    -1.1630 ho         1 9L2       0.460000
     31 H9           1.7460    -0.2300     1.9140 h1         1 9L2       0.031700
     32 H10          1.0590    -1.5190    -0.7500 h1         1 9L2       0.104700
     33 H11          1.2900    -3.4850     0.4450 hn         1 9L2       0.402500
     34 H12          1.8350    -2.7450     1.7770 hn         1 9L2       0.402500
     35 H14         -0.3710    -0.1160     3.2120 hn         1 9L2       0.351000
     36 H15         -2.8670     0.0520     2.9150 h4         1 9L2       0.158000
     37 H17         -2.5470    -0.0440    -1.9390 ha         1 9L2       0.118500
     38 H18         -4.6040     0.1160    -3.2750 ha         1 9L2       0.108000
     39 H19         -6.8020     0.3700    -2.1610 ha         1 9L2       0.109000
     40 H20         -6.9080     0.4670     0.3150 ha         1 9L2       0.108000
     41 H21         -4.8650     0.3120     1.6490 ha         1 9L2       0.118500
@<TRIPOS>BOND
     1     1     2 1   
     2     1    23 1   
     3     2     3 1   
     4     2    24 1   
     5     2    25 1   
     6     3     4 1   
     7     3     8 1   
     8     3    26 1   
     9     4     5 1   
    10     4     6 1   
    11     4    27 1   
    12     5    28 1   
    13     6     7 1   
    14     6    10 1   
    15     6    29 1   
    16     7    30 1   
    17     8     9 1   
    18     9    10 1   
    19     9    12 1   
    20     9    31 1   
    21    10    11 1   
    22    10    32 1   
    23    11    33 1   
    24    11    34 1   
    25    12    13 1   
    26    12    16 2   
    27    13    14 1   
    28    13    35 1   
    29    14    15 2   
    30    14    36 1   
    31    15    16 1   
    32    15    17 1   
    33    17    18 ar  
    34    17    22 ar  
    35    18    19 ar  
    36    18    37 1   
    37    19    20 ar  
    38    19    38 1   
    39    20    21 ar  
    40    20    39 1   
    41    21    22 ar  
    42    21    40 1   
    43    22    41 1   
@<TRIPOS>SUBSTRUCTURE
     1 9L2         1 TEMP              0 ****  ****    0 ROOT
