@<TRIPOS>MOLECULE
9L2
   41    43     1     0     0
SMALL
No Charge or Current Charge


@<TRIPOS>ATOM
      1 O6           3.0090     3.5190    -0.0850 oh         1 9L2      -0.704000
      2 C6           3.5170     2.3550    -0.7660 c3         1 9L2       0.171600
      3 C5           3.1660     1.0130    -0.0420 c6         1 9L2       0.142300
      4 C4           3.6580    -0.2490    -0.8210 c6         1 9L2       0.102300
      5 O4           5.0950    -0.2640    -0.9930 oh         1 9L2      -0.726000
      6 C3           3.2150    -1.5190    -0.0390 c6         1 9L2       0.136300
      7 O3           3.6380    -2.6980    -0.7450 oh         1 9L2      -0.659000
      8 O5           1.7250     0.9490     0.1130 os         1 9L2      -0.416000
      9 C1           1.2360    -0.1830     0.8850 c6         1 9L2       0.160000
     10 C2           1.6710    -1.5240     0.2060 c6         1 9L2       0.135500
     11 N2           1.2760    -2.7370     0.9940 n8         1 9L2      -0.986200
     12 C15         -0.2810    -0.1350     1.0410 cc         1 9L2       0.425800
     13 N1          -0.9180    -0.1890     2.2620 na         1 9L2      -0.280500
     14 C14         -2.2790    -0.1010     2.0480 cc         1 9L2      -0.208000
     15 C13         -2.4210     0.0130     0.6870 cd         1 9L2       0.296500
     16 N5          -1.1840    -0.0040     0.0740 nd         1 9L2      -0.653000
     17 C12         -3.6900     0.1400    -0.0650 ca         1 9L2      -0.097500
     18 C7          -3.6880     0.2500    -1.4750 ca         1 9L2      -0.096000
     19 C8          -4.8950     0.3720    -2.1860 ca         1 9L2      -0.116000
     20 C9          -6.1190     0.3850    -1.5010 ca         1 9L2      -0.113000
     21 C10         -6.1360     0.2770    -0.1020 ca         1 9L2      -0.116000
     22 C11         -4.9310     0.1550     0.6120 ca         1 9L2      -0.096000
     23 H1           3.2200     4.2980    -0.6510 ho         1 9L2       0.505000
     24 H2           3.1110     2.3110    -1.7860 h1         1 9L2       0.026700
     25 H3           4.6100     2.4270    -0.8530 h1         1 9L2       0.026700
     26 H4           3.6290     1.0320     0.9560 h1         1 9L2       0.057700
     27 H5           3.1600    -0.2590    -1.8030 h1         1 9L2       0.062700
     28 H6           5.3090     0.2870    -1.7830 ho         1 9L2       0.511000
     29 H7           3.7120    -1.4920     0.9430 h1         1 9L2       0.035700
     30 H8           4.5430    -2.4810    -1.0650 ho         1 9L2       0.460000
     31 H9           1.7000    -0.1300     1.8810 h1         1 9L2       0.031700
     32 H10          1.1680    -1.5810    -0.7740 h1         1 9L2       0.104700
     33 H11          1.6610    -3.5520     0.4980 hn         1 9L2       0.402500
     34 H12          1.8020    -2.7490     1.8750 hn         1 9L2       0.402500
     35 H14         -0.4500    -0.2850     3.1550 hn         1 9L2       0.351000
     36 H15         -3.0110    -0.1230     2.8450 h4         1 9L2       0.158000
     37 H17         -2.7510     0.2420    -2.0260 ha         1 9L2       0.118500
     38 H18         -4.8780     0.4560    -3.2710 ha         1 9L2       0.108000
     39 H19         -7.0520     0.4790    -2.0520 ha         1 9L2       0.109000
     40 H20         -7.0840     0.2870     0.4320 ha         1 9L2       0.108000
     41 H21         -4.9720     0.0730     1.6950 ha         1 9L2       0.118500
@<TRIPOS>BOND
     1     1     2 1   
     2     1    23 1   
     3     2     3 1   
     4     2    24 1   
     5     2    25 1   
     6     3     4 1   
     7     3     8 1   
     8     3    26 1   
     9     4     5 1   
    10     4     6 1   
    11     4    27 1   
    12     5    28 1   
    13     6     7 1   
    14     6    10 1   
    15     6    29 1   
    16     7    30 1   
    17     8     9 1   
    18     9    10 1   
    19     9    12 1   
    20     9    31 1   
    21    10    11 1   
    22    10    32 1   
    23    11    33 1   
    24    11    34 1   
    25    12    13 1   
    26    12    16 2   
    27    13    14 1   
    28    13    35 1   
    29    14    15 2   
    30    14    36 1   
    31    15    16 1   
    32    15    17 1   
    33    17    18 ar  
    34    17    22 ar  
    35    18    19 ar  
    36    18    37 1   
    37    19    20 ar  
    38    19    38 1   
    39    20    21 ar  
    40    20    39 1   
    41    21    22 ar  
    42    21    40 1   
    43    22    41 1   
@<TRIPOS>SUBSTRUCTURE
     1 9L2         1 TEMP              0 ****  ****    0 ROOT
