@<TRIPOS>MOLECULE
9L4
   60    64     1     0     0
SMALL
bcc


@<TRIPOS>ATOM
      1 N1           1.9600    -0.5400     0.0840 na         1 9L4      -0.128300
      2 N3           2.7410    -2.5740    -0.4140 nc         1 9L4      -0.558100
      3 C4           2.9540    -0.3500    -0.8510 ca         1 9L4      -0.048200
      4 C5           3.4340    -1.6370    -1.1350 ca         1 9L4       0.067400
      5 C6          -0.0070     0.7480    -0.4770 c          1 9L4       0.653100
      6 C7           1.0140     0.4280     0.6140 c3         1 9L4      -0.026000
      7 C8           3.4910     0.7820    -1.4600 ca         1 9L4      -0.119000
      8 C10          4.4810    -1.8300    -2.0370 ca         1 9L4      -0.093000
      9 C15          5.0100    -0.7120    -2.6280 ca         1 9L4       0.073900
     10 C17         -3.4810     1.4420    -0.4270 ca         1 9L4      -0.013600
     11 C21         -2.4610     0.3440    -2.2880 ca         1 9L4      -0.136000
     12 C22         -3.5730     0.6390    -3.0580 ca         1 9L4      -0.092000
     13 C24         -0.1010    -3.3140     0.6990 ca         1 9L4      -0.090000
     14 O20         -6.8060     2.2630    -2.7920 o          1 9L4      -0.815300
     15 O29         -5.8630     1.2560    -4.5450 o          1 9L4      -0.815300
     16 C16         -4.6560     1.3290    -2.5220 ca         1 9L4      -0.125600
     17 C12         -2.3970     0.7460    -0.9580 ca         1 9L4       0.003600
     18 C23          1.6520     1.7100     1.1670 c6         1 9L4      -0.065700
     19 C34          0.5880     2.5300     1.9030 c6         1 9L4      -0.075400
     20 C37          1.1780     3.8130     2.4780 c6         1 9L4      -0.072900
     21 C38          2.3630     3.5220     3.3910 c6         1 9L4      -0.076400
     22 C36          3.4180     2.6910     2.6690 c6         1 9L4      -0.072900
     23 C35          2.8260     1.4070     2.0960 c6         1 9L4      -0.075400
     24 C2           1.8830    -1.8950     0.2900 cd         1 9L4       0.464400
     25 F27          6.0160    -0.8190    -3.5060 f          1 9L4      -0.134900
     26 C11          4.5220     0.5680    -2.3410 ca         1 9L4       0.103900
     27 F26          5.0900     1.6100    -2.9620 f          1 9L4      -0.130900
     28 C14          0.9110    -2.5070     1.2090 ca         1 9L4      -0.116900
     29 C32         -1.0260    -3.9050     1.5460 ca         1 9L4      -0.126500
     30 C30         -0.9260    -3.6850     2.9110 ca         1 9L4       0.039400
     31 CL33        -2.0790    -4.4160     3.9740 cl         1 9L4      -0.108400
     32 C31          0.0800    -2.8930     3.4420 ca         1 9L4      -0.126500
     33 C25          0.9980    -2.3060     2.5850 ca         1 9L4      -0.090000
     34 C18         -4.6000     1.7230    -1.1900 ca         1 9L4      -0.085000
     35 H1           0.5170    -0.0620     1.4540 h1         1 9L4       0.074700
     36 H2           3.1390     1.7860    -1.2840 ha         1 9L4       0.170000
     37 H3           4.8620    -2.8170    -2.2630 ha         1 9L4       0.163000
     38 H4          -1.6420    -0.2170    -2.7150 ha         1 9L4       0.130000
     39 H5          -3.6040     0.3180    -4.0900 ha         1 9L4       0.157000
     40 H6          -0.1760    -3.4800    -0.3680 ha         1 9L4       0.149000
     41 H8          -1.4740     0.1140     0.7810 hn         1 9L4       0.318500
     42 H9           2.0160     2.3180     0.3330 hc         1 9L4       0.073700
     43 H10         -0.2470     2.7760     1.2420 hc         1 9L4       0.046950
     44 H11          0.1730     1.9240     2.7170 hc         1 9L4       0.046950
     45 H12          1.5020     4.4590     1.6560 hc         1 9L4       0.042450
     46 H13          0.4050     4.3630     3.0190 hc         1 9L4       0.042450
     47 H14          2.8000     4.4560     3.7520 hc         1 9L4       0.036200
     48 H15          2.0170     2.9770     4.2760 hc         1 9L4       0.036200
     49 H16          3.8500     3.2810     1.8540 hc         1 9L4       0.042450
     50 H17          4.2410     2.4470     3.3440 hc         1 9L4       0.042450
     51 H18          2.4830     0.7650     2.9160 hc         1 9L4       0.046950
     52 H19          3.6030     0.8500     1.5680 hc         1 9L4       0.046950
     53 H20         -1.8130    -4.5260     1.1420 ha         1 9L4       0.151500
     54 H21          0.1550    -2.7350     4.5080 ha         1 9L4       0.151500
     55 H22          1.7920    -1.6990     3.0010 ha         1 9L4       0.149000
     56 H23         -5.4310     2.2600    -0.7530 ha         1 9L4       0.167000
     57 N9          -1.2860     0.4490    -0.1520 ns         1 9L4      -0.462100
     58 C13         -5.8880     1.6450    -3.3640 c          1 9L4       0.925200
     59 O19          0.3330     1.2270    -1.5390 o          1 9L4      -0.565100
     60 CL28        -3.4250     1.9710     1.2240 cl         1 9L4      -0.170400
@<TRIPOS>BOND
     1     1     3 1   
     2     1     6 1   
     3     1    24 1   
     4     2     4 1   
     5     2    24 2   
     6     3     4 ar  
     7     3     7 ar  
     8     4     8 ar  
     9     5     6 1   
    10     5    57 1   
    11     5    59 2   
    12     6    18 1   
    13     6    35 1   
    14     7    26 ar  
    15     7    36 1   
    16     8     9 ar  
    17     8    37 1   
    18     9    25 1   
    19     9    26 ar  
    20    10    17 ar  
    21    10    34 ar  
    22    10    60 1   
    23    11    12 ar  
    24    11    17 ar  
    25    11    38 1   
    26    12    16 ar  
    27    12    39 1   
    28    13    28 ar  
    29    13    29 ar  
    30    13    40 1   
    31    14    58 1   
    32    15    58 1   
    33    16    34 ar  
    34    16    58 1   
    35    17    57 1   
    36    18    19 1   
    37    18    23 1   
    38    18    42 1   
    39    19    20 1   
    40    19    43 1   
    41    19    44 1   
    42    20    21 1   
    43    20    45 1   
    44    20    46 1   
    45    21    22 1   
    46    21    47 1   
    47    21    48 1   
    48    22    23 1   
    49    22    49 1   
    50    22    50 1   
    51    23    51 1   
    52    23    52 1   
    53    24    28 1   
    54    26    27 1   
    55    28    33 ar  
    56    29    30 ar  
    57    29    53 1   
    58    30    31 1   
    59    30    32 ar  
    60    32    33 ar  
    61    32    54 1   
    62    33    55 1   
    63    34    56 1   
    64    41    57 1   
@<TRIPOS>SUBSTRUCTURE
     1 9L4         1 TEMP              0 ****  ****    0 ROOT
