@<TRIPOS>MOLECULE
9L4
   60    64     1     0     0
SMALL
No Charge or Current Charge


@<TRIPOS>ATOM
      1 N1           1.9150    -0.4190     0.1710 na         1 9L4      -0.157600
      2 N3           2.3010    -2.6230    -0.4250 nc         1 9L4      -0.558100
      3 C4           2.8220    -0.4480    -0.8660 ca         1 9L4      -0.048200
      4 C5           3.0490    -1.7590    -1.1950 ca         1 9L4       0.067400
      5 C6           0.1590     1.2130    -0.5280 c          1 9L4       0.586100
      6 C7           1.1250     0.7700     0.5970 c3         1 9L4       0.003300
      7 C8           3.4610     0.6040    -1.5490 ca         1 9L4      -0.101000
      8 C10          3.9400    -2.1060    -2.2210 ca         1 9L4      -0.075000
      9 C15          4.6010    -1.0760    -2.9160 ca         1 9L4       0.109000
     10 C17         -3.3890    -0.0560    -0.8610 ca         1 9L4       0.078000
     11 C21         -2.4100     1.6300    -2.3060 ca         1 9L4      -0.118000
     12 C22         -3.6090     1.6930    -3.0380 ca         1 9L4      -0.074000
     13 C24         -0.1980    -3.4120     0.9510 ca         1 9L4      -0.072000
     14 O20         -6.9390     0.2310    -3.1490 o          1 9L4      -0.710000
     15 O29         -6.0770     1.7240    -4.4320 o          1 9L4      -0.710000
     16 C16         -4.7150     0.8830    -2.6940 ca         1 9L4      -0.125600
     17 C12         -2.2870     0.7520    -1.2080 ca         1 9L4      -0.089000
     18 C23          1.9230     1.9460     1.2700 c6         1 9L4      -0.065700
     19 C34          0.9610     2.9430     1.9840 c6         1 9L4      -0.075400
     20 C37          1.7340     4.1230     2.6260 c6         1 9L4      -0.072900
     21 C38          2.8170     3.6160     3.6080 c6         1 9L4      -0.076400
     22 C36          3.7810     2.6290     2.9090 c6         1 9L4      -0.072900
     23 C35          3.0090     1.4480     2.2710 c6         1 9L4      -0.075400
     24 C2           1.6240    -1.7880     0.3870 cd         1 9L4       0.464400
     25 F27          5.4640    -1.3900    -3.9100 f          1 9L4      -0.170000
     26 C11          4.3600     0.2770    -2.5820 ca         1 9L4       0.139000
     27 F26          4.9890     1.2680    -3.2550 f          1 9L4      -0.166000
     28 C14          0.6140    -2.3180     1.3280 ca         1 9L4      -0.116900
     29 C32         -1.1460    -3.9410     1.8450 ca         1 9L4      -0.108500
     30 C30         -1.2760    -3.4000     3.1320 ca         1 9L4       0.131000
     31 Cl33        -2.4620    -4.0610     4.2490 cl         1 9L4      -0.200000
     32 C31         -0.4480    -2.3410     3.5340 ca         1 9L4      -0.108500
     33 C25          0.5010    -1.8110     2.6420 ca         1 9L4      -0.072000
     34 C18         -4.5860     0.0070    -1.5930 ca         1 9L4      -0.067000
     35 H1           0.4620     0.4170     1.3930 h1         1 9L4       0.074700
     36 H2           3.2790     1.6450    -1.3120 ha         1 9L4       0.152000
     37 H3           4.1130    -3.1480    -2.4770 ha         1 9L4       0.145000
     38 H4          -1.5940     2.2770    -2.6080 ha         1 9L4       0.112000
     39 H5          -3.6750     2.3810    -3.8790 ha         1 9L4       0.139000
     40 H6          -0.1100    -3.8420    -0.0450 ha         1 9L4       0.131000
     41 H8          -1.2050     0.0060     0.3590 hn         1 9L4       0.152000
     42 H9           2.4310     2.4990     0.4710 hc         1 9L4       0.073700
     43 H10          0.2270     3.3440     1.2720 hc         1 9L4       0.046950
     44 H11          0.3860     2.4190     2.7610 hc         1 9L4       0.046950
     45 H12          2.2020     4.7300     1.8390 hc         1 9L4       0.042450
     46 H13          1.0330     4.7840     3.1540 hc         1 9L4       0.042450
     47 H14          3.3820     4.4670     4.0120 hc         1 9L4       0.036200
     48 H15          2.3380     3.1230     4.4650 hc         1 9L4       0.036200
     49 H16          4.3560     3.1570     2.1350 hc         1 9L4       0.042450
     50 H17          4.5120     2.2470     3.6340 hc         1 9L4       0.042450
     51 H18          2.5430     0.8500     3.0660 hc         1 9L4       0.046950
     52 H19          3.7270     0.7890     1.7630 hc         1 9L4       0.046950
     53 H20         -1.7790    -4.7700     1.5390 ha         1 9L4       0.133500
     54 H21         -0.5350    -1.9370     4.5390 ha         1 9L4       0.133500
     55 H22          1.1550    -1.0130     2.9830 ha         1 9L4       0.131000
     56 H23         -5.4160    -0.6320    -1.2990 ha         1 9L4       0.149000
     57 N9          -1.1030     0.6400    -0.4250 ns         1 9L4      -0.136000
     58 C13         -6.0090     0.9510    -3.4860 c          1 9L4       0.714600
     59 O19          0.4910     2.0000    -1.4080 o          1 9L4      -0.565100
     60 Cl28        -3.2840    -1.1700     0.5040 cl         1 9L4      -0.262000
@<TRIPOS>BOND
     1     1     3 1   
     2     1     6 1   
     3     1    24 1   
     4     2     4 1   
     5     2    24 2   
     6     3     4 ar  
     7     3     7 ar  
     8     4     8 ar  
     9     5     6 1   
    10     5    57 1   
    11     5    59 2   
    12     6    18 1   
    13     6    35 1   
    14     7    26 ar  
    15     7    36 1   
    16     8     9 ar  
    17     8    37 1   
    18     9    25 1   
    19     9    26 ar  
    20    10    17 ar  
    21    10    34 ar  
    22    10    60 1   
    23    11    12 ar  
    24    11    17 ar  
    25    11    38 1   
    26    12    16 ar  
    27    12    39 1   
    28    13    28 ar  
    29    13    29 ar  
    30    13    40 1   
    31    14    58 1   
    32    15    58 1   
    33    16    34 ar  
    34    16    58 1   
    35    17    57 1   
    36    18    19 1   
    37    18    23 1   
    38    18    42 1   
    39    19    20 1   
    40    19    43 1   
    41    19    44 1   
    42    20    21 1   
    43    20    45 1   
    44    20    46 1   
    45    21    22 1   
    46    21    47 1   
    47    21    48 1   
    48    22    23 1   
    49    22    49 1   
    50    22    50 1   
    51    23    51 1   
    52    23    52 1   
    53    24    28 1   
    54    26    27 1   
    55    28    33 ar  
    56    29    30 ar  
    57    29    53 1   
    58    30    31 1   
    59    30    32 ar  
    60    32    33 ar  
    61    32    54 1   
    62    33    55 1   
    63    34    56 1   
    64    41    57 1   
@<TRIPOS>SUBSTRUCTURE
     1 9L4         1 TEMP              0 ****  ****    0 ROOT
