@<TRIPOS>MOLECULE
9L5
   49    51     1     0     0
SMALL
bcc


@<TRIPOS>ATOM
      1 CAA          3.7600     3.0190    -1.7380 c3         1 9L5      -0.112100
      2 CAB          6.1210    -1.8710    -0.0640 c3         1 9L5      -0.123400
      3 CAC         -4.3270     0.0540    -1.7160 c3         1 9L5      -0.036800
      4 CAD         -3.6230    -2.2940     2.2930 c3         1 9L5      -0.106100
      5 CAE         -6.4920     2.0210    -0.8690 c3         1 9L5       0.039600
      6 CAH          0.2160     0.5390     0.1080 ca         1 9L5      -0.063000
      7 CAI          1.4120     1.2120    -0.0200 ca         1 9L5      -0.187000
      8 CAJ         -5.3200     0.1410     1.8150 cc         1 9L5       0.322200
      9 CAK          1.3610    -1.5550     0.1950 ca         1 9L5       0.004000
     10 CAL          3.9440     2.5740    -0.2970 c3         1 9L5       0.086000
     11 CAP         -1.1070    -1.6220     0.3330 c          1 9L5       0.683700
     12 CAQ          0.1700    -0.8540     0.2240 ca         1 9L5      -0.187600
     13 CAR          4.8640    -1.0720    -0.0550 cc         1 9L5       0.381300
     14 CAS         -4.8390     0.2230    -0.3310 cd         1 9L5      -0.065600
     15 CAT         -4.5070    -0.4480     0.8330 cc         1 9L5      -0.300600
     16 CAU          5.0090     0.3940    -0.2090 c          1 9L5       0.570200
     17 CAV          2.5830    -0.8960     0.0810 ca         1 9L5       0.046400
     18 CAW          2.6190     0.5050    -0.0300 ca         1 9L5       0.083600
     19 CAX         -3.4850    -1.5320     0.9800 c3         1 9L5       0.202000
     20 NAM         -6.0850     1.0880     1.3060 nd         1 9L5      -0.524800
     21 NAN          3.7300    -1.6520     0.0750 nd         1 9L5      -0.515100
     22 NAO         -2.1540    -0.9530     0.8380 ns         1 9L5      -0.569900
     23 NAY         -5.7760     1.1290     0.0100 na         1 9L5       0.112400
     24 NAZ          3.8480     1.1210    -0.1490 n          1 9L5      -0.342000
     25 OAF         -1.1710    -2.7900    -0.0310 o          1 9L5      -0.606100
     26 H1           4.5210     2.5800    -2.3820 hc         1 9L5       0.047367
     27 H2           2.7800     2.7460    -2.1310 hc         1 9L5       0.047367
     28 H3           3.8530     4.1030    -1.7980 hc         1 9L5       0.047367
     29 H4           5.8940    -2.9260     0.0680 hc         1 9L5       0.063033
     30 H5           6.6620    -1.7420    -1.0030 hc         1 9L5       0.063033
     31 H6           6.7940    -1.5520     0.7330 hc         1 9L5       0.063033
     32 H7          -3.8240     0.9540    -2.0760 hc         1 9L5       0.055033
     33 H8          -3.6060    -0.7600    -1.7550 hc         1 9L5       0.055033
     34 H9          -5.1270    -0.1780    -2.4210 hc         1 9L5       0.055033
     35 H10         -4.6080    -2.7560     2.3660 hc         1 9L5       0.044367
     36 H11         -2.8750    -3.0830     2.3560 hc         1 9L5       0.044367
     37 H12         -3.4930    -1.6340     3.1520 hc         1 9L5       0.044367
     38 H13         -7.4290     1.5750    -1.2020 h1         1 9L5       0.056700
     39 H14         -6.7050     2.9470    -0.3420 h1         1 9L5       0.056700
     40 H15         -5.8850     2.2500    -1.7410 h1         1 9L5       0.056700
     41 H16         -0.6930     1.1270     0.0870 ha         1 9L5       0.134000
     42 H17          1.3850     2.2860    -0.1210 ha         1 9L5       0.143000
     43 H18         -5.3750    -0.0900     2.8680 h4         1 9L5       0.039100
     44 H19          1.3720    -2.6350     0.2680 ha         1 9L5       0.174000
     45 H20          4.9210     2.8760     0.0700 h1         1 9L5       0.066700
     46 H21          3.2120     3.0380     0.3600 h1         1 9L5       0.066700
     47 H22         -3.6030    -2.2440     0.1600 h1         1 9L5       0.078700
     48 H23         -2.0100    -0.0470     1.2540 hn         1 9L5       0.315500
     49 OAG          6.0990     0.9140    -0.3740 o          1 9L5      -0.605500
@<TRIPOS>BOND
     1     1    10 1   
     2     1    26 1   
     3     1    27 1   
     4     1    28 1   
     5     2    13 1   
     6     2    29 1   
     7     2    30 1   
     8     2    31 1   
     9     3    14 1   
    10     3    32 1   
    11     3    33 1   
    12     3    34 1   
    13     4    19 1   
    14     4    35 1   
    15     4    36 1   
    16     4    37 1   
    17     5    23 1   
    18     5    38 1   
    19     5    39 1   
    20     5    40 1   
    21     6     7 ar  
    22     6    12 ar  
    23     6    41 1   
    24     7    18 ar  
    25     7    42 1   
    26     8    15 1   
    27     8    20 2   
    28     8    43 1   
    29     9    12 ar  
    30     9    17 ar  
    31     9    44 1   
    32    10    24 1   
    33    10    45 1   
    34    10    46 1   
    35    11    12 1   
    36    11    22 1   
    37    11    25 2   
    38    13    16 1   
    39    13    21 2   
    40    14    15 2   
    41    14    23 1   
    42    15    19 1   
    43    16    24 1   
    44    16    49 2   
    45    17    18 ar  
    46    17    21 1   
    47    18    24 1   
    48    19    22 1   
    49    19    47 1   
    50    20    23 1   
    51    22    48 1   
@<TRIPOS>SUBSTRUCTURE
     1 9L5         1 TEMP              0 ****  ****    0 ROOT
