@<TRIPOS>MOLECULE
9L5
   49    51     1     0     0
SMALL
No Charge or Current Charge


@<TRIPOS>ATOM
      1 CAA          4.0020     3.3990    -0.9800 c3         1 9L5      -0.112100
      2 CAB          6.2220    -2.0070    -0.7320 c3         1 9L5      -0.123400
      3 CAC         -5.3220    -0.8260    -1.8000 c3         1 9L5      -0.036800
      4 CAD         -3.6890    -1.9190     2.2850 c3         1 9L5      -0.106100
      5 CAE         -6.9580     1.7840    -1.1510 c3         1 9L5       0.068900
      6 CAH          0.4170     0.5660     0.4900 ca         1 9L5      -0.045000
      7 CAI          1.6650     1.1950     0.3740 ca         1 9L5      -0.169000
      8 CAJ         -4.7830     0.8520     1.4490 cc         1 9L5       0.256900
      9 CAK          1.4860    -1.5780     0.1280 ca         1 9L5       0.022000
     10 CAL          4.3030     2.5340     0.2590 c3         1 9L5       0.086000
     11 CAP         -1.0080    -1.5640     0.4960 c          1 9L5       0.616700
     12 CAQ          0.3120    -0.8360     0.3760 ca         1 9L5      -0.187600
     13 CAR          5.0010    -1.1750    -0.4170 cc         1 9L5       0.381300
     14 CAS         -5.2330    -0.0150    -0.5310 cd         1 9L5      -0.116300
     15 CAT         -4.4680    -0.2100     0.5830 cc         1 9L5      -0.235300
     16 CAU          5.2680     0.3030    -0.2970 c          1 9L5       0.427700
     17 CAV          2.7470    -0.9610     0.0050 ca         1 9L5       0.046400
     18 CAW          2.8460     0.4460     0.1610 ca         1 9L5       0.083600
     19 CAX         -3.4760    -1.2990     0.8900 c3         1 9L5       0.202000
     20 NAM         -5.6820     1.6910     0.9790 nd         1 9L5      -0.524800
     21 NAN          3.8310    -1.8130    -0.2760 nd         1 9L5      -0.515100
     22 NAO         -2.1190    -0.7890     0.7360 ns         1 9L5      -0.502900
     23 NAY         -5.9710     1.1480    -0.2650 na         1 9L5       0.133800
     24 NAZ          4.1290     1.0770     0.0070 n          1 9L5      -0.275000
     25 OAF         -1.0910    -2.7790     0.3810 o          1 9L5      -0.606100
     26 H1           4.6870     3.1460    -1.7980 hc         1 9L5       0.047367
     27 H2           2.9760     3.2450    -1.3310 hc         1 9L5       0.047367
     28 H3           4.1290     4.4620    -0.7420 hc         1 9L5       0.047367
     29 H4           5.9750    -3.0720    -0.8070 hc         1 9L5       0.063033
     30 H5           6.6650    -1.6990    -1.6860 hc         1 9L5       0.063033
     31 H6           6.9810    -1.8940     0.0510 hc         1 9L5       0.063033
     32 H7          -5.4810    -0.1860    -2.6760 hc         1 9L5       0.055033
     33 H8          -4.4020    -1.3940    -1.9760 hc         1 9L5       0.055033
     34 H9          -6.1530    -1.5400    -1.7500 hc         1 9L5       0.055033
     35 H10         -4.7190    -2.2830     2.3870 hc         1 9L5       0.044367
     36 H11         -3.0140    -2.7690     2.4400 hc         1 9L5       0.044367
     37 H12         -3.5020    -1.1840     3.0760 hc         1 9L5       0.044367
     38 H13         -7.6880     1.0360    -1.4820 h1         1 9L5       0.056700
     39 H14         -7.4820     2.5870    -0.6180 h1         1 9L5       0.056700
     40 H15         -6.4460     2.2040    -2.0250 h1         1 9L5       0.056700
     41 H16         -0.4570     1.1880     0.6650 ha         1 9L5       0.116000
     42 H17          1.6890     2.2770     0.4590 ha         1 9L5       0.125000
     43 H18         -4.3700     1.0380     2.4310 h4         1 9L5       0.039100
     44 H19          1.4270    -2.6590     0.0190 ha         1 9L5       0.156000
     45 H20          5.3290     2.7390     0.5910 h1         1 9L5       0.066700
     46 H21          3.6590     2.8430     1.0920 h1         1 9L5       0.066700
     47 H22         -3.6200    -2.1000     0.1510 h1         1 9L5       0.078700
     48 H23         -1.9790     0.2080     0.8000 hn         1 9L5       0.315500
     49 OAG          6.3770     0.8150    -0.4440 o          1 9L5      -0.530000
@<TRIPOS>BOND
     1     1    10 1   
     2     1    26 1   
     3     1    27 1   
     4     1    28 1   
     5     2    13 1   
     6     2    29 1   
     7     2    30 1   
     8     2    31 1   
     9     3    14 1   
    10     3    32 1   
    11     3    33 1   
    12     3    34 1   
    13     4    19 1   
    14     4    35 1   
    15     4    36 1   
    16     4    37 1   
    17     5    23 1   
    18     5    38 1   
    19     5    39 1   
    20     5    40 1   
    21     6     7 ar  
    22     6    12 ar  
    23     6    41 1   
    24     7    18 ar  
    25     7    42 1   
    26     8    15 1   
    27     8    20 2   
    28     8    43 1   
    29     9    12 ar  
    30     9    17 ar  
    31     9    44 1   
    32    10    24 1   
    33    10    45 1   
    34    10    46 1   
    35    11    12 1   
    36    11    22 1   
    37    11    25 2   
    38    13    16 1   
    39    13    21 2   
    40    14    15 2   
    41    14    23 1   
    42    15    19 1   
    43    16    24 1   
    44    16    49 2   
    45    17    18 ar  
    46    17    21 1   
    47    18    24 1   
    48    19    22 1   
    49    19    47 1   
    50    20    23 1   
    51    22    48 1   
@<TRIPOS>SUBSTRUCTURE
     1 9L5         1 TEMP              0 ****  ****    0 ROOT
