@<TRIPOS>MOLECULE
9L6
   14    14     1     0     0
SMALL
No Charge or Current Charge


@<TRIPOS>ATOM
      1 C02        -19.2600   -19.3720   -17.6760 c3         1 9L6       0.176800
      2 C03        -18.8090   -17.9630   -17.3140 cx         1 9L6      -0.124700
      3 C04        -17.5850   -17.7220   -16.4600 cx         1 9L6      -0.126900
      4 C05        -18.9630   -17.4380   -15.9050 cx         1 9L6      -0.126900
      5 N01        -18.5250   -19.8710   -18.8500 n8         1 9L6      -0.989200
      6 H1         -20.3350   -19.3680   -17.9030 h1         1 9L6       0.028700
      7 H2         -19.0850   -20.0550   -16.8320 h1         1 9L6       0.028700
      8 H3         -18.9950   -17.2500   -18.1140 hc         1 9L6       0.072700
      9 H4         -17.0520   -18.5880   -16.0750 hc         1 9L6       0.070450
     10 H5         -16.9530   -16.8730   -16.7100 hc         1 9L6       0.070450
     11 H6         -19.2550   -16.3980   -15.7810 hc         1 9L6       0.070450
     12 H7         -19.3510   -18.1130   -15.1460 hc         1 9L6       0.070450
     13 H8         -18.9040   -20.7880   -19.1140 hn         1 9L6       0.390000
     14 H9         -18.7460   -19.2740   -19.6550 hn         1 9L6       0.390000
@<TRIPOS>BOND
     1     1     2 1   
     2     1     5 1   
     3     1     6 1   
     4     1     7 1   
     5     2     3 1   
     6     2     4 1   
     7     2     8 1   
     8     3     4 1   
     9     3     9 1   
    10     3    10 1   
    11     4    11 1   
    12     4    12 1   
    13     5    13 1   
    14     5    14 1   
@<TRIPOS>SUBSTRUCTURE
     1 9L6         1 TEMP              0 ****  ****    0 ROOT
