@<TRIPOS>MOLECULE
9L6
   14    14     1     0     0
SMALL
abcg2


@<TRIPOS>ATOM
      1 C02        -19.2720   -19.3350   -17.6920 c3         1 9L6       0.176800
      2 C03        -18.8310   -17.9430   -17.3300 cx         1 9L6      -0.124700
      3 C04        -17.6040   -17.7400   -16.4980 cx         1 9L6      -0.126900
      4 C05        -18.9600   -17.4640   -15.9180 cx         1 9L6      -0.126900
      5 N01        -18.5050   -19.8580   -18.8170 n8         1 9L6      -0.989200
      6 H1         -20.3570   -19.3270   -17.8700 h1         1 9L6       0.028700
      7 H2         -19.1090   -19.9910   -16.8320 h1         1 9L6       0.028700
      8 H3         -19.0120   -17.1980   -18.1010 hc         1 9L6       0.072700
      9 H4         -17.0760   -18.6230   -16.1570 hc         1 9L6       0.070450
     10 H5         -16.9600   -16.8980   -16.7200 hc         1 9L6       0.070450
     11 H6         -19.2450   -16.4340   -15.7460 hc         1 9L6       0.070450
     12 H7         -19.3480   -18.1590   -15.1820 hc         1 9L6       0.070450
     13 H8         -18.8270   -20.7940   -19.0310 hn         1 9L6       0.390000
     14 H9         -18.7130   -19.3080   -19.6420 hn         1 9L6       0.390000
@<TRIPOS>BOND
     1     1     2 1   
     2     1     5 1   
     3     1     6 1   
     4     1     7 1   
     5     2     3 1   
     6     2     4 1   
     7     2     8 1   
     8     3     4 1   
     9     3     9 1   
    10     3    10 1   
    11     4    11 1   
    12     4    12 1   
    13     5    13 1   
    14     5    14 1   
@<TRIPOS>SUBSTRUCTURE
     1 9L6         1 TEMP              0 ****  ****    0 ROOT
