@<TRIPOS>MOLECULE
9L7
   76    81     1     0     0
SMALL
abcg2


@<TRIPOS>ATOM
      1 C4          -2.7800     3.9810    -2.3750 ca         1 9L7      -0.053000
      2 C5          -2.1970     3.0130    -1.5560 ca         1 9L7       0.060400
      3 C6          -2.9600     1.9500    -1.0460 ca         1 9L7      -0.057200
      4 C8          -0.8680     1.8540    -0.3730 cc         1 9L7       0.447400
      5 C10         -2.2640    -0.1140     0.2860 c3         1 9L7       0.013300
      6 N12         -1.0460    -1.8190    -0.9130 ns         1 9L7      -0.498900
      7 C15         -3.5270    -0.2980     1.1250 c6         1 9L7      -0.062700
      8 C17         -4.8920     0.5730     3.0580 c6         1 9L7      -0.073400
      9 C20         -3.4880    -1.6760     1.7950 c6         1 9L7      -0.073400
     10 C21          0.7830    -2.7630    -2.2120 c6         1 9L7      -0.089400
     11 C22          1.1610    -3.7710    -3.2920 c6         1 9L7      -0.071900
     12 C24         -0.8100    -5.1970    -2.6540 c6         1 9L7      -0.071900
     13 C26          2.6890     0.5280     1.5590 ca         1 9L7      -0.158600
     14 C28          1.5640     0.8510     2.3150 ca         1 9L7      -0.075500
     15 C1          -4.1230     3.8540    -2.6700 ca         1 9L7      -0.132000
     16 C2          -4.8760     2.7860    -2.1610 ca         1 9L7      -0.098000
     17 C3          -4.3140     1.8180    -1.3490 ca         1 9L7      -0.091000
     18 N9          -0.8990     2.9160    -1.1220 nd         1 9L7      -0.555100
     19 N7          -2.0820     1.2210    -0.2690 na         1 9L7      -0.170600
     20 C11         -2.1790    -1.1080    -0.8750 c          1 9L7       0.585100
     21 O13         -3.0700    -1.1800    -1.7070 o          1 9L7      -0.584100
     22 C14         -0.7190    -2.7860    -1.9450 c6         1 9L7       0.109700
     23 C23          0.6900    -5.1760    -2.9320 c6         1 9L7      -0.077400
     24 C25         -1.1880    -4.1920    -1.5700 c6         1 9L7      -0.089400
     25 C16         -3.6670     0.8010     2.1790 c6         1 9L7      -0.073400
     26 C18         -4.8570    -0.8000     3.7180 c6         1 9L7      -0.077400
     27 C19         -4.7150    -1.9010     2.6730 c6         1 9L7      -0.073400
     28 C36          0.3480     1.3760     0.3040 ca         1 9L7      -0.091900
     29 C32          0.4070     1.2860     1.6940 ca         1 9L7      -0.098500
     30 O31          3.7810    -0.6520     3.2650 o          1 9L7      -0.517100
     31 C30          5.2450     0.3440     1.7180 ca         1 9L7      -0.173600
     32 C34          5.4880     1.5350     1.0330 ca         1 9L7      -0.064500
     33 C37          6.7700     1.8420     0.5990 ca         1 9L7      -0.123000
     34 C39          7.8120     0.9560     0.8320 ca         1 9L7      -0.084000
     35 C38          7.5770    -0.2330     1.5140 ca         1 9L7      -0.123000
     36 C35          6.3030    -0.5310     1.9670 ca         1 9L7      -0.064500
     37 C29          2.6310     0.6250     0.1710 ca         1 9L7      -0.075500
     38 C33          1.4650     1.0390    -0.4540 ca         1 9L7      -0.098500
     39 H1          -2.1900     4.8000    -2.7650 ha         1 9L7       0.127000
     40 H2          -1.4220    -0.2750     0.9620 h1         1 9L7       0.069700
     41 H3          -0.3950    -1.7270    -0.1490 hn         1 9L7       0.312500
     42 H4          -4.4060    -0.2770     0.4750 hc         1 9L7       0.076700
     43 H5          -4.9530     1.3590     3.8150 hc         1 9L7       0.043450
     44 H6          -5.7970     0.6590     2.4460 hc         1 9L7       0.043450
     45 H7          -3.4240    -2.4690     1.0450 hc         1 9L7       0.043700
     46 H8          -2.5830    -1.7510     2.4100 hc         1 9L7       0.043700
     47 H9           1.3160    -3.0070    -1.2850 hc         1 9L7       0.044700
     48 H10          1.0910    -1.7540    -2.4990 hc         1 9L7       0.044700
     49 H11          0.7080    -3.4680    -4.2420 hc         1 9L7       0.043950
     50 H12          2.2420    -3.7570    -3.4460 hc         1 9L7       0.043950
     51 H13         -1.3520    -4.9550    -3.5750 hc         1 9L7       0.043950
     52 H14         -1.1300    -6.1990    -2.3600 hc         1 9L7       0.043950
     53 H15          1.5970     0.7840     3.3940 ha         1 9L7       0.130500
     54 H16         -4.6050     4.5880    -3.3030 ha         1 9L7       0.113000
     55 H17         -5.9250     2.7120    -2.4140 ha         1 9L7       0.112000
     56 H18         -4.9190     1.0050    -0.9780 ha         1 9L7       0.127000
     57 H19         -1.2390    -2.4740    -2.8550 h1         1 9L7       0.080700
     58 H20          0.9340    -5.8730    -3.7370 hc         1 9L7       0.041200
     59 H21          1.2290    -5.5230    -2.0440 hc         1 9L7       0.041200
     60 H22         -2.2680    -4.1890    -1.4070 hc         1 9L7       0.044700
     61 H23         -0.7230    -4.4790    -0.6210 hc         1 9L7       0.044700
     62 H24         -2.7680     0.8130     2.8070 hc         1 9L7       0.043700
     63 H25         -3.7300     1.7830     1.7060 hc         1 9L7       0.043700
     64 H26         -4.0100    -0.8480     4.4110 hc         1 9L7       0.040700
     65 H27         -5.7590    -0.9560     4.3150 hc         1 9L7       0.040700
     66 H28         -5.6110    -1.9230     2.0440 hc         1 9L7       0.043450
     67 H29         -4.6490    -2.8790     3.1540 hc         1 9L7       0.043450
     68 H30         -0.4490     1.5670     2.2950 ha         1 9L7       0.131000
     69 H31          4.6850     2.2380     0.8540 ha         1 9L7       0.126000
     70 H32          6.9530     2.7730     0.0800 ha         1 9L7       0.118500
     71 H33          8.8100     1.1920     0.4850 ha         1 9L7       0.116000
     72 H34          8.3900    -0.9230     1.6960 ha         1 9L7       0.118500
     73 H35          6.1250    -1.4540     2.5040 ha         1 9L7       0.126000
     74 H36          3.4850     0.3530    -0.4350 ha         1 9L7       0.130500
     75 H37          1.4210     1.0930    -1.5340 ha         1 9L7       0.131000
     76 C27          3.9010     0.0180     2.2600 c          1 9L7       0.593300
@<TRIPOS>BOND
     1     1     2 ar  
     2     1    15 ar  
     3     1    39 1   
     4     2     3 ar  
     5     2    18 1   
     6     3    17 ar  
     7     3    19 1   
     8     4    18 2   
     9     4    19 1   
    10     4    28 1   
    11     5     7 1   
    12     5    19 1   
    13     5    20 1   
    14     5    40 1   
    15     6    20 1   
    16     6    22 1   
    17     6    41 1   
    18     7     9 1   
    19     7    25 1   
    20     7    42 1   
    21     8    25 1   
    22     8    26 1   
    23     8    43 1   
    24     8    44 1   
    25     9    27 1   
    26     9    45 1   
    27     9    46 1   
    28    10    11 1   
    29    10    22 1   
    30    10    47 1   
    31    10    48 1   
    32    11    23 1   
    33    11    49 1   
    34    11    50 1   
    35    12    23 1   
    36    12    24 1   
    37    12    51 1   
    38    12    52 1   
    39    13    14 ar  
    40    13    37 ar  
    41    13    76 1   
    42    14    29 ar  
    43    14    53 1   
    44    15    16 ar  
    45    15    54 1   
    46    16    17 ar  
    47    16    55 1   
    48    17    56 1   
    49    20    21 2   
    50    22    24 1   
    51    22    57 1   
    52    23    58 1   
    53    23    59 1   
    54    24    60 1   
    55    24    61 1   
    56    25    62 1   
    57    25    63 1   
    58    26    27 1   
    59    26    64 1   
    60    26    65 1   
    61    27    66 1   
    62    27    67 1   
    63    28    29 ar  
    64    28    38 ar  
    65    29    68 1   
    66    30    76 2   
    67    31    32 ar  
    68    31    36 ar  
    69    31    76 1   
    70    32    33 ar  
    71    32    69 1   
    72    33    34 ar  
    73    33    70 1   
    74    34    35 ar  
    75    34    71 1   
    76    35    36 ar  
    77    35    72 1   
    78    36    73 1   
    79    37    38 ar  
    80    37    74 1   
    81    38    75 1   
@<TRIPOS>SUBSTRUCTURE
     1 9L7         1 TEMP              0 ****  ****    0 ROOT
