@<TRIPOS>MOLECULE
9L7
   76    81     1     0     0
SMALL
No Charge or Current Charge


@<TRIPOS>ATOM
      1 C4          -2.6040     3.9140    -2.4640 ca         1 9L7      -0.053000
      2 C5          -2.0710     2.9570    -1.5880 ca         1 9L7       0.060400
      3 C6          -2.8350     1.9200    -1.1220 ca         1 9L7      -0.057200
      4 C8          -0.7600     1.8080    -0.3190 cc         1 9L7       0.447400
      5 C10         -2.3590    -0.1810     0.2090 c3         1 9L7       0.013300
      6 N12         -1.1850    -1.8470    -1.1760 ns         1 9L7      -0.498900
      7 C15         -3.5730    -0.2950     1.2010 c6         1 9L7      -0.062700
      8 C17         -4.8310     0.7190     3.1990 c6         1 9L7      -0.073400
      9 C20         -3.5760    -1.6720     1.9300 c6         1 9L7      -0.073400
     10 C21          0.5610    -2.9230    -2.5490 c6         1 9L7      -0.089400
     11 C22          0.8620    -4.0300    -3.5910 c6         1 9L7      -0.071900
     12 C24         -1.1140    -5.3830    -2.7030 c6         1 9L7      -0.071900
     13 C26          2.8440     0.3990     1.5870 ca         1 9L7      -0.158600
     14 C28          1.6230     0.4100     2.2920 ca         1 9L7      -0.075500
     15 C1          -3.9520     3.7870    -2.8610 ca         1 9L7      -0.132000
     16 C2          -4.7330     2.7090    -2.3880 ca         1 9L7      -0.098000
     17 C3          -4.1760     1.7560    -1.5100 ca         1 9L7      -0.091000
     18 N9          -0.7690     2.8990    -1.1090 nd         1 9L7      -0.555100
     19 N7          -2.0200     1.1790    -0.3000 na         1 9L7      -0.170600
     20 C11         -2.3860    -1.2070    -0.9490 c          1 9L7       0.585100
     21 O13         -3.3860    -1.4570    -1.6080 o          1 9L7      -0.584100
     22 C14         -0.9460    -2.8790    -2.1890 c6         1 9L7       0.109700
     23 C23          0.3860    -5.4140    -3.0860 c6         1 9L7      -0.077400
     24 C25         -1.4030    -4.2670    -1.6680 c6         1 9L7      -0.089400
     25 C16         -3.6170     0.8590     2.2480 c6         1 9L7      -0.073400
     26 C18         -4.8290    -0.6550     3.9110 c6         1 9L7      -0.077400
     27 C19         -4.7870    -1.8120     2.8850 c6         1 9L7      -0.073400
     28 C36          0.4530     1.2950     0.3330 ca         1 9L7      -0.091900
     29 C32          0.4460     0.8680     1.6770 ca         1 9L7      -0.098500
     30 O31          4.0310    -0.9940     3.1100 o          1 9L7      -0.517100
     31 C30          5.4390     0.4720     1.8710 ca         1 9L7      -0.173600
     32 C34          5.5630     1.8280     1.4920 ca         1 9L7      -0.064500
     33 C37          6.8190     2.3580     1.1490 ca         1 9L7      -0.123000
     34 C39          7.9640     1.5460     1.1900 ca         1 9L7      -0.084000
     35 C38          7.8530     0.2030     1.5820 ca         1 9L7      -0.123000
     36 C35          6.5990    -0.3320     1.9260 ca         1 9L7      -0.064500
     37 C29          2.8590     0.8470     0.2480 ca         1 9L7      -0.075500
     38 C33          1.6800     1.3060    -0.3630 ca         1 9L7      -0.098500
     39 H1          -1.9900     4.7330    -2.8300 ha         1 9L7       0.127000
     40 H2          -1.5040    -0.4940     0.8140 h1         1 9L7       0.069700
     41 H3          -0.4080    -1.5770    -0.5860 hn         1 9L7       0.312500
     42 H4          -4.4910    -0.2410     0.6040 hc         1 9L7       0.076700
     43 H5          -4.8140     1.5250     3.9450 hc         1 9L7       0.043450
     44 H6          -5.7630     0.8410     2.6300 hc         1 9L7       0.043450
     45 H7          -3.6010    -2.4920     1.1980 hc         1 9L7       0.043700
     46 H8          -2.6450    -1.7960     2.5010 hc         1 9L7       0.043700
     47 H9           1.1590    -3.0990    -1.6440 hc         1 9L7       0.044700
     48 H10          0.8770    -1.9490    -2.9480 hc         1 9L7       0.044700
     49 H11          0.3630    -3.7900    -4.5410 hc         1 9L7       0.043950
     50 H12          1.9390    -4.0610    -3.8030 hc         1 9L7       0.043950
     51 H13         -1.7230    -5.2200    -3.6030 hc         1 9L7       0.043950
     52 H14         -1.4150    -6.3570    -2.2940 hc         1 9L7       0.043950
     53 H15          1.5870     0.0760     3.3280 ha         1 9L7       0.130500
     54 H16         -4.3870     4.5160    -3.5400 ha         1 9L7       0.113000
     55 H17         -5.7690     2.6100    -2.7060 ha         1 9L7       0.112000
     56 H18         -4.7810     0.9240    -1.1680 ha         1 9L7       0.127000
     57 H19         -1.5210    -2.6250    -3.0930 h1         1 9L7       0.080700
     58 H20          0.5570    -6.1740    -3.8610 hc         1 9L7       0.041200
     59 H21          0.9840    -5.7160    -2.2150 hc         1 9L7       0.041200
     60 H22         -2.4780    -4.2460    -1.4430 hc         1 9L7       0.044700
     61 H23         -0.8920    -4.4990    -0.7230 hc         1 9L7       0.044700
     62 H24         -2.6940     0.8660     2.8410 hc         1 9L7       0.043700
     63 H25         -3.6730     1.8340     1.7440 hc         1 9L7       0.043700
     64 H26         -3.9610    -0.7230     4.5820 hc         1 9L7       0.040700
     65 H27         -5.7220    -0.7490     4.5440 hc         1 9L7       0.040700
     66 H28         -5.7190    -1.8230     2.3020 hc         1 9L7       0.043450
     67 H29         -4.7380    -2.7740     3.4110 hc         1 9L7       0.043450
     68 H30         -0.4710     0.9020     2.2580 ha         1 9L7       0.131000
     69 H31          4.6920     2.4800     1.4740 ha         1 9L7       0.126000
     70 H32          6.9050     3.4030     0.8560 ha         1 9L7       0.118500
     71 H33          8.9350     1.9590     0.9240 ha         1 9L7       0.116000
     72 H34          8.7400    -0.4260     1.6210 ha         1 9L7       0.118500
     73 H35          6.5300    -1.3750     2.2290 ha         1 9L7       0.126000
     74 H36          3.7810     0.8330    -0.3300 ha         1 9L7       0.130500
     75 H37          1.7160     1.6520    -1.3940 ha         1 9L7       0.131000
     76 C27          4.0990    -0.1140     2.2590 c          1 9L7       0.593300
@<TRIPOS>BOND
     1     1     2 ar  
     2     1    15 ar  
     3     1    39 1   
     4     2     3 ar  
     5     2    18 1   
     6     3    17 ar  
     7     3    19 1   
     8     4    18 2   
     9     4    19 1   
    10     4    28 1   
    11     5     7 1   
    12     5    19 1   
    13     5    20 1   
    14     5    40 1   
    15     6    20 1   
    16     6    22 1   
    17     6    41 1   
    18     7     9 1   
    19     7    25 1   
    20     7    42 1   
    21     8    25 1   
    22     8    26 1   
    23     8    43 1   
    24     8    44 1   
    25     9    27 1   
    26     9    45 1   
    27     9    46 1   
    28    10    11 1   
    29    10    22 1   
    30    10    47 1   
    31    10    48 1   
    32    11    23 1   
    33    11    49 1   
    34    11    50 1   
    35    12    23 1   
    36    12    24 1   
    37    12    51 1   
    38    12    52 1   
    39    13    14 ar  
    40    13    37 ar  
    41    13    76 1   
    42    14    29 ar  
    43    14    53 1   
    44    15    16 ar  
    45    15    54 1   
    46    16    17 ar  
    47    16    55 1   
    48    17    56 1   
    49    20    21 2   
    50    22    24 1   
    51    22    57 1   
    52    23    58 1   
    53    23    59 1   
    54    24    60 1   
    55    24    61 1   
    56    25    62 1   
    57    25    63 1   
    58    26    27 1   
    59    26    64 1   
    60    26    65 1   
    61    27    66 1   
    62    27    67 1   
    63    28    29 ar  
    64    28    38 ar  
    65    29    68 1   
    66    30    76 2   
    67    31    32 ar  
    68    31    36 ar  
    69    31    76 1   
    70    32    33 ar  
    71    32    69 1   
    72    33    34 ar  
    73    33    70 1   
    74    34    35 ar  
    75    34    71 1   
    76    35    36 ar  
    77    35    72 1   
    78    36    73 1   
    79    37    38 ar  
    80    37    74 1   
    81    38    75 1   
@<TRIPOS>SUBSTRUCTURE
     1 9L7         1 TEMP              0 ****  ****    0 ROOT
