@<TRIPOS>MOLECULE
9L8
   46    49     1     0     0
SMALL
abcg2


@<TRIPOS>ATOM
      1 N2          -2.4660     2.6420     0.9610 n8         1 9L8      -0.989200
      2 C2          -2.8320     1.4930     0.1590 c6         1 9L8       0.134500
      3 C3          -4.3090     1.4050    -0.2160 c6         1 9L8       0.137300
      4 O3          -4.6180     2.5170    -1.0170 oh         1 9L8      -0.658000
      5 C4          -4.6120     0.0910    -0.9270 c6         1 9L8       0.102300
      6 O4          -6.0040     0.0480    -1.1520 oh         1 9L8      -0.725000
      7 C5          -4.1390    -1.0790    -0.0580 c6         1 9L8       0.141300
      8 C6          -4.3380    -2.4170    -0.7350 c3         1 9L8       0.171600
      9 O6          -3.9830    -3.4400     0.1630 oh         1 9L8      -0.704000
     10 O5          -2.7560    -0.9420     0.2060 os         1 9L8      -0.415000
     11 C1          -2.4290     0.2240     0.9180 c6         1 9L8       0.155000
     12 C18         -0.9530     0.1970     1.1230 cc         1 9L8       0.448800
     13 N5          -0.0490     0.1120     0.1740 nd         1 9L8      -0.683000
     14 C16          1.1230     0.1160     0.8490 cd         1 9L8       0.589500
     15 C17          2.4240     0.0250     0.1840 ca         1 9L8      -0.113500
     16 C7           3.5930    -0.0020     0.9040 ca         1 9L8      -0.069000
     17 C8           4.8450    -0.0950     0.2580 ca         1 9L8      -0.045000
     18 C9           4.8910    -0.1610    -1.1590 ca         1 9L8      -0.028000
     19 C15          6.1460    -0.2550    -1.8040 ca         1 9L8      -0.102000
     20 C14          7.3030    -0.2830    -1.0740 ca         1 9L8      -0.105000
     21 C13          7.2580    -0.2170     0.3360 ca         1 9L8      -0.114000
     22 C12          6.0580    -0.1260     0.9860 ca         1 9L8      -0.092000
     23 C10          3.6740    -0.1300    -1.8790 ca         1 9L8      -0.114000
     24 C11          2.4760    -0.0410    -1.2300 ca         1 9L8      -0.073000
     25 N3           0.9820     0.2030     2.1560 nc         1 9L8      -0.528800
     26 N1          -0.3400     0.2480     2.3050 na         1 9L8      -0.173700
     27 H1          -2.5500     3.4870     0.4130 hn         1 9L8       0.406500
     28 H2          -3.1100     2.7440     1.7370 hn         1 9L8       0.406500
     29 H4          -2.2420     1.5240    -0.7640 h1         1 9L8       0.104700
     30 H5          -4.8980     1.4210     0.7180 h1         1 9L8       0.037700
     31 H6          -5.5530     2.4700    -1.2420 ho         1 9L8       0.462000
     32 H7          -4.0570     0.0710    -1.8760 h1         1 9L8       0.062700
     33 H8          -6.1800    -0.4720    -1.9410 ho         1 9L8       0.513000
     34 H9          -4.7100    -1.0670     0.8850 h1         1 9L8       0.059700
     35 H10         -5.3880    -2.5000    -1.0410 h1         1 9L8       0.027700
     36 H11         -3.7300    -2.4450    -1.6490 h1         1 9L8       0.027700
     37 H12         -4.1200    -4.2830    -0.2780 ho         1 9L8       0.506000
     38 H13         -2.9270     0.2300     1.9010 h1         1 9L8       0.038700
     39 H15          3.5690     0.0440     1.9860 ha         1 9L8       0.127000
     40 H16          6.1790    -0.3040    -2.8850 ha         1 9L8       0.112000
     41 H17          8.2590    -0.3570    -1.5750 ha         1 9L8       0.111000
     42 H18          8.1810    -0.2400     0.9020 ha         1 9L8       0.111000
     43 H19          6.0230    -0.0780     2.0670 ha         1 9L8       0.113000
     44 H20          3.7020    -0.1790    -2.9610 ha         1 9L8       0.113000
     45 H21          1.5550    -0.0200    -1.7980 ha         1 9L8       0.134000
     46 H3          -0.7500     0.3160     3.2250 hn         1 9L8       0.378000
@<TRIPOS>BOND
     1     1     2 1   
     2     1    27 1   
     3     1    28 1   
     4     2     3 1   
     5     2    11 1   
     6     2    29 1   
     7     3     4 1   
     8     3     5 1   
     9     3    30 1   
    10     4    31 1   
    11     5     6 1   
    12     5     7 1   
    13     5    32 1   
    14     6    33 1   
    15     7     8 1   
    16     7    10 1   
    17     7    34 1   
    18     8     9 1   
    19     8    35 1   
    20     8    36 1   
    21     9    37 1   
    22    10    11 1   
    23    11    12 1   
    24    11    38 1   
    25    12    13 2   
    26    12    26 1   
    27    13    14 1   
    28    14    15 1   
    29    14    25 2   
    30    15    16 ar  
    31    15    24 ar  
    32    16    17 ar  
    33    16    39 1   
    34    17    18 ar  
    35    17    22 ar  
    36    18    19 ar  
    37    18    23 ar  
    38    19    20 ar  
    39    19    40 1   
    40    20    21 ar  
    41    20    41 1   
    42    21    22 ar  
    43    21    42 1   
    44    22    43 1   
    45    23    24 ar  
    46    23    44 1   
    47    24    45 1   
    48    25    26 1   
    49    26    46 1   
@<TRIPOS>SUBSTRUCTURE
     1 9L8         1 TEMP              0 ****  ****    0 ROOT
