@<TRIPOS>MOLECULE
9L8
   46    49     1     0     0
SMALL
No Charge or Current Charge


@<TRIPOS>ATOM
      1 N2          -2.5420     2.7340     0.9810 n8         1 9L8      -0.989200
      2 C2          -2.8850     1.5100     0.1860 c6         1 9L8       0.134500
      3 C3          -4.4240     1.4500    -0.0830 c6         1 9L8       0.137300
      4 O3          -4.8760     2.6130    -0.7970 oh         1 9L8      -0.658000
      5 C4          -4.8070     0.1640    -0.8710 c6         1 9L8       0.102300
      6 O4          -6.2400     0.1260    -1.0660 oh         1 9L8      -0.725000
      7 C5          -4.2810    -1.0790    -0.0850 c6         1 9L8       0.141300
      8 C6          -4.5690    -2.4330    -0.8160 c3         1 9L8       0.171600
      9 O6          -4.0270    -3.5770    -0.1270 oh         1 9L8      -0.704000
     10 O5          -2.8460    -0.9610     0.0940 os         1 9L8      -0.415000
     11 C1          -2.4120     0.1880     0.8750 c6         1 9L8       0.155000
     12 C18         -0.8980     0.2010     1.0530 cc         1 9L8       0.448800
     13 N5           0.0360     0.0410     0.1260 nd         1 9L8      -0.683000
     14 C16          1.2320     0.1150     0.8130 cd         1 9L8       0.589500
     15 C17          2.5510    -0.0120     0.1480 ca         1 9L8      -0.113500
     16 C7           3.7500     0.0680     0.8950 ca         1 9L8      -0.069000
     17 C8           5.0020    -0.0530     0.2620 ca         1 9L8      -0.045000
     18 C9           5.0710    -0.2590    -1.1320 ca         1 9L8      -0.028000
     19 C15          6.3230    -0.3800    -1.7640 ca         1 9L8      -0.102000
     20 C14          7.5050    -0.2970    -1.0070 ca         1 9L8      -0.105000
     21 C13          7.4380    -0.0930     0.3810 ca         1 9L8      -0.114000
     22 C12          6.1890     0.0290     1.0160 ca         1 9L8      -0.092000
     23 C10          3.8850    -0.3400    -1.8820 ca         1 9L8      -0.114000
     24 C11          2.6370    -0.2190    -1.2480 ca         1 9L8      -0.073000
     25 N3           1.0980     0.3050     2.1190 nc         1 9L8      -0.528800
     26 N1          -0.2590     0.3570     2.2580 na         1 9L8      -0.173700
     27 H1          -2.9100     3.5410     0.4600 hn         1 9L8       0.406500
     28 H2          -3.1130     2.7500     1.8340 hn         1 9L8       0.406500
     29 H4          -2.3670     1.5840    -0.7850 h1         1 9L8       0.104700
     30 H5          -4.9350     1.4050     0.8910 h1         1 9L8       0.037700
     31 H6          -5.7690     2.3650    -1.1300 ho         1 9L8       0.462000
     32 H7          -4.2950     0.1930    -1.8460 h1         1 9L8       0.062700
     33 H8          -6.4220    -0.4280    -1.8620 ho         1 9L8       0.513000
     34 H9          -4.7600    -1.1170     0.9040 h1         1 9L8       0.059700
     35 H10         -5.6560    -2.5460    -0.9200 h1         1 9L8       0.027700
     36 H11         -4.1480    -2.3720    -1.8290 h1         1 9L8       0.027700
     37 H12         -4.1990    -4.3640    -0.6950 ho         1 9L8       0.506000
     38 H13         -2.8890     0.1170     1.8630 h1         1 9L8       0.038700
     39 H15          3.7140     0.2260     1.9700 ha         1 9L8       0.127000
     40 H16          6.3820    -0.5380    -2.8380 ha         1 9L8       0.112000
     41 H17          8.4710    -0.3920    -1.4970 ha         1 9L8       0.111000
     42 H18          8.3530    -0.0290     0.9660 ha         1 9L8       0.111000
     43 H19          6.1470     0.1870     2.0920 ha         1 9L8       0.113000
     44 H20          3.9280    -0.4980    -2.9570 ha         1 9L8       0.113000
     45 H21          1.7340    -0.2860    -1.8510 ha         1 9L8       0.134000
     46 H3          -0.7150     0.5000     3.1550 hn         1 9L8       0.378000
@<TRIPOS>BOND
     1     1     2 1   
     2     1    27 1   
     3     1    28 1   
     4     2     3 1   
     5     2    11 1   
     6     2    29 1   
     7     3     4 1   
     8     3     5 1   
     9     3    30 1   
    10     4    31 1   
    11     5     6 1   
    12     5     7 1   
    13     5    32 1   
    14     6    33 1   
    15     7     8 1   
    16     7    10 1   
    17     7    34 1   
    18     8     9 1   
    19     8    35 1   
    20     8    36 1   
    21     9    37 1   
    22    10    11 1   
    23    11    12 1   
    24    11    38 1   
    25    12    13 2   
    26    12    26 1   
    27    13    14 1   
    28    14    15 1   
    29    14    25 2   
    30    15    16 ar  
    31    15    24 ar  
    32    16    17 ar  
    33    16    39 1   
    34    17    18 ar  
    35    17    22 ar  
    36    18    19 ar  
    37    18    23 ar  
    38    19    20 ar  
    39    19    40 1   
    40    20    21 ar  
    41    20    41 1   
    42    21    22 ar  
    43    21    42 1   
    44    22    43 1   
    45    23    24 ar  
    46    23    44 1   
    47    24    45 1   
    48    25    26 1   
    49    26    46 1   
@<TRIPOS>SUBSTRUCTURE
     1 9L8         1 TEMP              0 ****  ****    0 ROOT
