@<TRIPOS>MOLECULE
9L9
   48    49     1     0     0
SMALL
abcg2


@<TRIPOS>ATOM
      1 N2A          8.6070     2.0010    -1.5270 nv         1 9L9      -1.058200
      2 N1           7.1780     1.7280     0.2350 nc         1 9L9      -0.783300
      3 C2           7.5960     1.3470    -0.9460 cd         1 9L9       0.759800
      4 N3           7.0320     0.3250    -1.6280 ns         1 9L9      -0.445400
      5 C4           5.9550    -0.4220    -1.1410 c          1 9L9       0.592200
      6 O4A          5.4930    -1.3290    -1.8260 o          1 9L9      -0.556000
      7 C5           5.5180    -0.0170     0.1430 cd         1 9L9      -0.287600
      8 C6           6.1360     1.0580     0.7750 cc         1 9L9       0.491600
      9 N7           5.7140     1.5050     1.9660 nv         1 9L9      -0.941000
     10 O8A          2.8560     0.5940    -0.2590 o          1 9L9      -0.598100
     11 N9           2.2380    -1.2770     0.9070 ns         1 9L9      -0.160000
     12 C1B          0.8540    -1.2380     0.8200 ca         1 9L9      -0.025000
     13 C2B          0.1640    -2.3840     1.2330 ca         1 9L9      -0.172500
     14 C3B         -1.2150    -2.4280     1.2140 ca         1 9L9      -0.051000
     15 C4B         -1.9650    -1.3410     0.7700 ca         1 9L9      -0.128600
     16 C5B         -1.2730    -0.2010     0.3680 ca         1 9L9      -0.051000
     17 C6B          0.1110    -0.1370     0.3870 ca         1 9L9      -0.172500
     18 C7B         -3.4540    -1.4500     0.7890 c          1 9L9       0.598700
     19 O7B         -4.0060    -2.3410     1.4280 o          1 9L9      -0.646100
     20 CAW          3.1520    -0.3830     0.4040 c          1 9L9       0.656100
     21 N           -4.1370    -0.5170     0.1110 ns         1 9L9      -0.417900
     22 CA          -5.5730    -0.5730    -0.0440 c3         1 9L9      -0.050300
     23 C           -6.0170    -1.6410    -1.0760 c          1 9L9       0.718000
     24 O           -5.1550    -2.0900    -1.8500 o          1 9L9      -0.743000
     25 CB          -6.1020     0.8080    -0.4360 c3         1 9L9      -0.055400
     26 CG          -5.8390     1.8730     0.6170 c3         1 9L9      -0.201400
     27 CD          -6.4250     3.2650     0.3240 c          1 9L9       0.712000
     28 OE1         -7.1230     3.4040    -0.7000 o          1 9L9      -0.762000
     29 OE2         -6.1490     4.1570     1.1550 o          1 9L9      -0.762000
     30 OXT         -7.2310    -1.9310    -1.0460 o          1 9L9      -0.743000
     31 H2A1         9.1030     2.6860    -0.9840 hn         1 9L9       0.499000
     32 H2A2         9.0660     1.6450    -2.3480 hn         1 9L9       0.499000
     33 H71N         6.2740     2.1770     2.4620 hn         1 9L9       0.496500
     34 H72N         5.0500     0.9710     2.4980 hn         1 9L9       0.496500
     35 H9           2.6070    -2.1000     1.3590 hn         1 9L9       0.132000
     36 H2B          0.7170    -3.2490     1.5790 ha         1 9L9       0.111500
     37 H6B          0.5960     0.7720     0.0730 ha         1 9L9       0.111500
     38 H3B         -1.7150    -3.3270     1.5480 ha         1 9L9       0.132000
     39 H5B         -1.8010     0.6890     0.0490 ha         1 9L9       0.132000
     40 H5A          4.6240    -1.5630     1.2110 hn         1 9L9       0.298500
     41 HN3          7.3820     0.0770    -2.5440 hn         1 9L9       0.318500
     42 H           -3.6390     0.0450    -0.5600 hn         1 9L9       0.298500
     43 HA          -6.0050    -0.8380     0.9240 h1         1 9L9       0.057700
     44 HB1C        -5.6640     1.1070    -1.3950 hc         1 9L9       0.049700
     45 HB2C        -7.1740     0.7160    -0.6090 hc         1 9L9       0.049700
     46 HG1C        -6.2370     1.5320     1.5810 hc         1 9L9       0.010200
     47 HG2C        -4.7630     1.9860     0.7830 hc         1 9L9       0.010200
     48 N5A          4.4390    -0.6860     0.7460 ns         1 9L9      -0.419100
@<TRIPOS>BOND
     1     1     3 1   
     2     1    31 1   
     3     1    32 1   
     4     2     3 2   
     5     2     8 1   
     6     3     4 1   
     7     4     5 1   
     8     4    41 1   
     9     5     6 2   
    10     5     7 1   
    11     7     8 2   
    12     7    48 1   
    13     8     9 1   
    14     9    33 1   
    15     9    34 1   
    16    10    20 2   
    17    11    12 1   
    18    11    20 1   
    19    11    35 1   
    20    12    13 ar  
    21    12    17 ar  
    22    13    14 ar  
    23    13    36 1   
    24    14    15 ar  
    25    14    38 1   
    26    15    16 ar  
    27    15    18 1   
    28    16    17 ar  
    29    16    39 1   
    30    17    37 1   
    31    18    19 2   
    32    18    21 1   
    33    20    48 1   
    34    21    22 1   
    35    21    42 1   
    36    22    23 1   
    37    22    25 1   
    38    22    43 1   
    39    23    24 1   
    40    23    30 1   
    41    25    26 1   
    42    25    44 1   
    43    25    45 1   
    44    26    27 1   
    45    26    46 1   
    46    26    47 1   
    47    27    28 1   
    48    27    29 1   
    49    40    48 1   
@<TRIPOS>SUBSTRUCTURE
     1 9L9         1 TEMP              0 ****  ****    0 ROOT
