@<TRIPOS>MOLECULE
9L9
   48    49     1     0     0
SMALL
No Charge or Current Charge


@<TRIPOS>ATOM
      1 N2A          9.4050     1.2390    -0.8880 nv         1 9L9      -1.058200
      2 N1           7.2400     1.6150    -0.9950 nc         1 9L9      -0.783300
      3 C2           8.1900     0.8420    -0.5710 cd         1 9L9       0.759800
      4 N3           8.0710    -0.2670     0.1540 ns         1 9L9      -0.445400
      5 C4           6.8780    -0.7600     0.5330 c          1 9L9       0.592200
      6 O4A          6.7820    -1.7820     1.1950 o          1 9L9      -0.556000
      7 C5           5.7250     0.0460     0.0670 cd         1 9L9      -0.287600
      8 C6           5.9980     1.2030    -0.6550 cc         1 9L9       0.491600
      9 N7           5.1500     2.1090    -1.1090 nv         1 9L9      -0.941000
     10 O8A          2.9130     0.5960    -0.9730 o          1 9L9      -0.598100
     11 N9           2.1950    -0.8410     0.6900 ns         1 9L9      -0.160000
     12 C1B          0.7760    -0.8910     0.5990 ca         1 9L9      -0.025000
     13 C2B          0.1010    -1.7600     1.4710 ca         1 9L9      -0.172500
     14 C3B         -1.3000    -1.8660     1.4440 ca         1 9L9      -0.051000
     15 C4B         -2.0650    -1.1000     0.5370 ca         1 9L9      -0.128600
     16 C5B         -1.3830    -0.2220    -0.3390 ca         1 9L9      -0.051000
     17 C6B          0.0200    -0.1200    -0.3070 ca         1 9L9      -0.172500
     18 C7B         -3.5760    -1.2380     0.5340 c          1 9L9       0.598700
     19 O7B         -4.1580    -1.9950     1.3030 o          1 9L9      -0.646100
     20 CAW          3.1560    -0.1470    -0.0320 c          1 9L9       0.656100
     21 N           -4.2650    -0.4720    -0.3880 ns         1 9L9      -0.417900
     22 CA          -5.7390    -0.4180    -0.5430 c3         1 9L9      -0.050300
     23 C           -6.1160    -0.4210    -2.0560 c          1 9L9       0.718000
     24 O           -5.5400     0.3590    -2.8030 o          1 9L9      -0.743000
     25 CB          -6.3620     0.8030     0.1880 c3         1 9L9      -0.055400
     26 CG          -6.1630     0.8110     1.7260 c3         1 9L9      -0.201400
     27 CD          -6.9160     2.0000     2.3520 c          1 9L9       0.712000
     28 OE1         -8.0820     1.8390     2.6780 o          1 9L9      -0.762000
     29 OE2         -6.3320     3.0680     2.4490 o          1 9L9      -0.762000
     30 OXT         -6.9060    -1.2660    -2.4540 o          1 9L9      -0.743000
     31 H2A1         9.4180     2.1810    -1.2570 hn         1 9L9       0.499000
     32 H2A2        10.1430     1.0270    -0.2280 hn         1 9L9       0.499000
     33 H71N         5.5230     2.7090    -1.8310 hn         1 9L9       0.496500
     34 H72N         4.1930     1.7830    -1.2370 hn         1 9L9       0.496500
     35 H9           2.5690    -1.4210     1.4280 hn         1 9L9       0.132000
     36 H2B          0.6630    -2.3630     2.1810 ha         1 9L9       0.111500
     37 H6B          0.4950     0.5690    -0.9960 ha         1 9L9       0.111500
     38 H3B         -1.7910    -2.5500     2.1330 ha         1 9L9       0.132000
     39 H5B         -1.9230     0.3940    -1.0540 ha         1 9L9       0.132000
     40 H5A          4.4200    -1.1590     1.1380 hn         1 9L9       0.298500
     41 HN3          8.8860    -0.7920     0.4200 hn         1 9L9       0.318500
     42 H           -3.7100     0.1010    -1.0090 hn         1 9L9       0.298500
     43 HA          -6.1690    -1.3310    -0.1110 h1         1 9L9       0.057700
     44 HB1C        -5.9480     1.7270    -0.2350 hc         1 9L9       0.049700
     45 HB2C        -7.4380     0.8180    -0.0260 hc         1 9L9       0.049700
     46 HG1C        -6.5790    -0.1390     2.0860 hc         1 9L9       0.010200
     47 HG2C        -5.0840     0.9130     1.8940 hc         1 9L9       0.010200
     48 N5A          4.4360    -0.4270     0.4350 ns         1 9L9      -0.419100
@<TRIPOS>BOND
     1     1     3 1   
     2     1    31 1   
     3     1    32 1   
     4     2     3 2   
     5     2     8 1   
     6     3     4 1   
     7     4     5 1   
     8     4    41 1   
     9     5     6 2   
    10     5     7 1   
    11     7     8 2   
    12     7    48 1   
    13     8     9 1   
    14     9    33 1   
    15     9    34 1   
    16    10    20 2   
    17    11    12 1   
    18    11    20 1   
    19    11    35 1   
    20    12    13 ar  
    21    12    17 ar  
    22    13    14 ar  
    23    13    36 1   
    24    14    15 ar  
    25    14    38 1   
    26    15    16 ar  
    27    15    18 1   
    28    16    17 ar  
    29    16    39 1   
    30    17    37 1   
    31    18    19 2   
    32    18    21 1   
    33    20    48 1   
    34    21    22 1   
    35    21    42 1   
    36    22    23 1   
    37    22    25 1   
    38    22    43 1   
    39    23    24 1   
    40    23    30 1   
    41    25    26 1   
    42    25    44 1   
    43    25    45 1   
    44    26    27 1   
    45    26    46 1   
    46    26    47 1   
    47    27    28 1   
    48    27    29 1   
    49    40    48 1   
@<TRIPOS>SUBSTRUCTURE
     1 9L9         1 TEMP              0 ****  ****    0 ROOT
