@<TRIPOS>MOLECULE
9LA
   60    64     1     0     0
SMALL
No Charge or Current Charge


@<TRIPOS>ATOM
      1 N1          13.1500    24.1750     3.9190 na         1 9LA      -0.151600
      2 N3          13.7050    25.9970     2.6060 nc         1 9LA      -0.573100
      3 C4          12.0940    25.0590     3.9190 ca         1 9LA      -0.059200
      4 C5          12.4400    26.1310     3.1390 ca         1 9LA       0.074400
      5 C6          10.8430    24.9810     4.5600 ca         1 9LA      -0.117000
      6 C7          13.3460    23.0630     4.8900 c3         1 9LA       0.086300
      7 C8          11.5570    27.2050     2.9530 ca         1 9LA      -0.069000
      8 C10         15.4560    24.2850     2.7710 ca         1 9LA      -0.116900
      9 C13         12.3900    21.8710     4.6020 c3         1 9LA       0.159600
     10 C17         13.3780    23.5340     6.3930 c6         1 9LA      -0.074700
     11 C20         10.0880    18.7160     2.7650 ca         1 9LA      -0.057000
     12 C21         11.0820    19.3090     0.6280 ca         1 9LA      -0.057000
     13 C24         11.6940    20.5480     2.6360 ca         1 9LA       0.086100
     14 C26         18.0290    23.3420     2.0680 ca         1 9LA       0.133000
     15 C28         11.8170    20.3280     1.2570 ca         1 9LA      -0.191000
     16 O16         12.4410    21.5620     3.1950 os         1 9LA      -0.373100
     17 C27         10.8250    19.7370     3.3930 ca         1 9LA      -0.191000
     18 C14         10.2060    18.4870     1.3740 ca         1 9LA      -0.146600
     19 C12          9.4100    17.3840     0.6980 c          1 9LA       0.706600
     20 O15          9.5420    17.2210    -0.5070 o          1 9LA      -0.722000
     21 O25          8.6640    16.6960     1.3810 o          1 9LA      -0.722000
     22 C32         13.7310    22.3710     7.3720 c6         1 9LA      -0.074400
     23 C34         13.7800    22.8460     8.8450 c6         1 9LA      -0.072400
     24 C36         14.7730    24.0160     9.0270 c6         1 9LA      -0.076400
     25 C35         14.4200    25.1850     8.0800 c6         1 9LA      -0.072400
     26 C33         14.3760    24.7180     6.6050 c6         1 9LA      -0.074400
     27 C9           9.9430    26.0490     4.3840 ca         1 9LA       0.138000
     28 C11         10.2990    27.1590     3.5830 ca         1 9LA       0.105000
     29 C2          14.1050    24.8000     3.0840 cd         1 9LA       0.483400
     30 C18         15.6720    22.9150     2.4970 ca         1 9LA      -0.070000
     31 C30         16.9530    22.4460     2.1590 ca         1 9LA      -0.112000
     32 C29         17.8230    24.7100     2.3000 ca         1 9LA      -0.112000
     33 C19         16.5410    25.1810     2.6370 ca         1 9LA      -0.070000
     34 Cl31        19.6300    22.7540     1.6420 cl         1 9LA      -0.217000
     35 F23          9.4330    28.1860     3.4160 f          1 9LA      -0.173000
     36 F22          8.7330    26.0050     4.9890 f          1 9LA      -0.169000
     37 H1          10.5600    24.1340     5.1750 ha         1 9LA       0.141000
     38 H2          14.3530    22.6710     4.7120 h1         1 9LA       0.079700
     39 H3          11.8380    28.0530     2.3350 ha         1 9LA       0.145000
     40 H4          11.3680    22.1290     4.9010 h1         1 9LA       0.045200
     41 H5          12.7060    20.9970     5.1840 h1         1 9LA       0.045200
     42 H6          12.3700    23.8900     6.6410 hc         1 9LA       0.057700
     43 H9          12.4870    20.9520     0.6700 ha         1 9LA       0.094500
     44 H10         10.7060    19.8800     4.4630 ha         1 9LA       0.094500
     45 H12         12.9900    21.5650     7.2990 hc         1 9LA       0.045950
     46 H13         14.7000    21.9310     7.0970 hc         1 9LA       0.045950
     47 H14         12.7770    23.1590     9.1660 hc         1 9LA       0.040450
     48 H15         14.0680    22.0100     9.4970 hc         1 9LA       0.040450
     49 H16         15.7960    23.6700     8.8270 hc         1 9LA       0.037700
     50 H17         14.7570    24.3620    10.0700 hc         1 9LA       0.037700
     51 H18         15.1580    25.9910     8.1930 hc         1 9LA       0.040450
     52 H19         13.4480    25.6110     8.3620 hc         1 9LA       0.040450
     53 H20         15.3840    24.4180     6.2840 hc         1 9LA       0.045950
     54 H21         14.0970    25.5770     5.9810 hc         1 9LA       0.045950
     55 H22         14.8460    22.2090     2.5270 ha         1 9LA       0.144000
     56 H23         17.1110    21.3890     1.9570 ha         1 9LA       0.133000
     57 H24         18.6540    25.4050     2.2150 ha         1 9LA       0.133000
     58 H25         16.3970    26.2460     2.8100 ha         1 9LA       0.144000
     59 H7           9.4220    18.1010     3.3680 ha         1 9LA       0.132000
     60 H8          11.1970    19.1600    -0.4440 ha         1 9LA       0.132000
@<TRIPOS>BOND
     1     1     3 1   
     2     1     6 1   
     3     1    29 1   
     4     2     4 1   
     5     2    29 2   
     6     3     4 ar  
     7     3     5 ar  
     8     4     7 ar  
     9     5    27 ar  
    10     5    37 1   
    11     6     9 1   
    12     6    10 1   
    13     6    38 1   
    14     7    28 ar  
    15     7    39 1   
    16     8    29 1   
    17     8    30 ar  
    18     8    33 ar  
    19     9    16 1   
    20     9    40 1   
    21     9    41 1   
    22    10    22 1   
    23    10    26 1   
    24    10    42 1   
    25    11    17 ar  
    26    11    18 ar  
    27    11    59 1   
    28    12    15 ar  
    29    12    18 ar  
    30    12    60 1   
    31    13    15 ar  
    32    13    16 1   
    33    13    17 ar  
    34    14    31 ar  
    35    14    32 ar  
    36    14    34 1   
    37    15    43 1   
    38    17    44 1   
    39    18    19 1   
    40    19    20 1   
    41    19    21 1   
    42    22    23 1   
    43    22    45 1   
    44    22    46 1   
    45    23    24 1   
    46    23    47 1   
    47    23    48 1   
    48    24    25 1   
    49    24    49 1   
    50    24    50 1   
    51    25    26 1   
    52    25    51 1   
    53    25    52 1   
    54    26    53 1   
    55    26    54 1   
    56    27    28 ar  
    57    27    36 1   
    58    28    35 1   
    59    30    31 ar  
    60    30    55 1   
    61    31    56 1   
    62    32    33 ar  
    63    32    57 1   
    64    33    58 1   
@<TRIPOS>SUBSTRUCTURE
     1 9LA         1 TEMP              0 ****  ****    0 ROOT
