@<TRIPOS>MOLECULE
9LA
   60    64     1     0     0
SMALL
abcg2


@<TRIPOS>ATOM
      1 N1          13.1170    24.2600     3.9630 na         1 9LA      -0.151600
      2 N3          13.6670    25.9840     2.6290 nc         1 9LA      -0.573100
      3 C4          12.0420    25.1330     3.9910 ca         1 9LA      -0.059200
      4 C5          12.4090    26.2050     3.1470 ca         1 9LA       0.074400
      5 C6          10.8140    25.1050     4.6510 ca         1 9LA      -0.117000
      6 C7          13.3320    23.1110     4.8520 c3         1 9LA       0.086300
      7 C8          11.5440    27.2820     2.9400 ca         1 9LA      -0.069000
      8 C10         15.3600    24.2240     2.8090 ca         1 9LA      -0.116900
      9 C13         12.3380    21.9990     4.5460 c3         1 9LA       0.159600
     10 C17         13.3470    23.5320     6.3350 c6         1 9LA      -0.074700
     11 C20         10.2350    18.7690     2.8170 ca         1 9LA      -0.057000
     12 C21         11.2390    19.3150     0.7160 ca         1 9LA      -0.057000
     13 C24         11.7330    20.6440     2.6630 ca         1 9LA       0.086100
     14 C26         17.8420    23.1800     2.1350 ca         1 9LA       0.133000
     15 C28         11.9020    20.3800     1.3000 ca         1 9LA      -0.191000
     16 O16         12.4320    21.7060     3.1550 os         1 9LA      -0.373100
     17 C27         10.8900    19.8360     3.4250 ca         1 9LA      -0.191000
     18 C14         10.3950    18.4850     1.4630 ca         1 9LA      -0.146600
     19 C12          9.6780    17.3080     0.8150 c          1 9LA       0.706600
     20 O15          9.8790    17.1200    -0.4130 o          1 9LA      -0.722000
     21 O25          8.9390    16.6070     1.5560 o          1 9LA      -0.722000
     22 C32         13.7660    22.3570     7.2320 c6         1 9LA      -0.074400
     23 C34         13.8690    22.7650     8.7030 c6         1 9LA      -0.072400
     24 C36         14.8100    23.9520     8.8970 c6         1 9LA      -0.076400
     25 C35         14.3850    25.1280     8.0180 c6         1 9LA      -0.072400
     26 C33         14.2900    24.7250     6.5470 c6         1 9LA      -0.074400
     27 C9           9.9790    26.1800     4.4290 ca         1 9LA       0.138000
     28 C11         10.3350    27.2460     3.5950 ca         1 9LA       0.105000
     29 C2          14.0590    24.8270     3.1270 cd         1 9LA       0.483400
     30 C18         15.4820    22.8890     2.4120 ca         1 9LA      -0.070000
     31 C30         16.7210    22.3630     2.0750 ca         1 9LA      -0.112000
     32 C29         17.7470    24.5110     2.5210 ca         1 9LA      -0.112000
     33 C19         16.5030    25.0270     2.8530 ca         1 9LA      -0.070000
     34 CL31        19.4050    22.5200     1.7120 cl         1 9LA      -0.217000
     35 F23          9.4500    28.2580     3.4450 f          1 9LA      -0.173000
     36 F22          8.7670    26.2200     5.0280 f          1 9LA      -0.169000
     37 H1          10.4930    24.3090     5.3050 ha         1 9LA       0.141000
     38 H2          14.3260    22.7400     4.6150 h1         1 9LA       0.079700
     39 H3          11.8030    28.1140     2.3000 ha         1 9LA       0.145000
     40 H4          11.3150    22.2880     4.7980 h1         1 9LA       0.045200
     41 H5          12.5980    21.1160     5.1290 h1         1 9LA       0.045200
     42 H6          12.3390    23.8370     6.6310 hc         1 9LA       0.057700
     43 H9          12.5570    21.0190     0.7210 ha         1 9LA       0.094500
     44 H10         10.7400    20.0250     4.4780 ha         1 9LA       0.094500
     45 H12         13.0580    21.5320     7.1390 hc         1 9LA       0.045950
     46 H13         14.7380    21.9820     6.8880 hc         1 9LA       0.045950
     47 H14         12.8720    23.0320     9.0710 hc         1 9LA       0.040450
     48 H15         14.2050    21.9100     9.2960 hc         1 9LA       0.040450
     49 H16         15.8300    23.6520     8.6300 hc         1 9LA       0.037700
     50 H17         14.8320    24.2510     9.9480 hc         1 9LA       0.037700
     51 H18         15.0860    25.9600     8.1270 hc         1 9LA       0.040450
     52 H19         13.4070    25.4930     8.3530 hc         1 9LA       0.040450
     53 H20         15.2860    24.4550     6.1760 hc         1 9LA       0.045950
     54 H21         13.9560    25.5800     5.9570 hc         1 9LA       0.045950
     55 H22         14.6050    22.2600     2.3500 ha         1 9LA       0.144000
     56 H23         16.8120    21.3330     1.7600 ha         1 9LA       0.133000
     57 H24         18.6300    25.1320     2.5640 ha         1 9LA       0.133000
     58 H25         16.4160    26.0610     3.1570 ha         1 9LA       0.144000
     59 H7           9.5830    18.1390     3.4060 ha         1 9LA       0.132000
     60 H8          11.3710    19.1080    -0.3370 ha         1 9LA       0.132000
@<TRIPOS>BOND
     1     1     3 1   
     2     1     6 1   
     3     1    29 1   
     4     2     4 1   
     5     2    29 2   
     6     3     4 ar  
     7     3     5 ar  
     8     4     7 ar  
     9     5    27 ar  
    10     5    37 1   
    11     6     9 1   
    12     6    10 1   
    13     6    38 1   
    14     7    28 ar  
    15     7    39 1   
    16     8    29 1   
    17     8    30 ar  
    18     8    33 ar  
    19     9    16 1   
    20     9    40 1   
    21     9    41 1   
    22    10    22 1   
    23    10    26 1   
    24    10    42 1   
    25    11    17 ar  
    26    11    18 ar  
    27    11    59 1   
    28    12    15 ar  
    29    12    18 ar  
    30    12    60 1   
    31    13    15 ar  
    32    13    16 1   
    33    13    17 ar  
    34    14    31 ar  
    35    14    32 ar  
    36    14    34 1   
    37    15    43 1   
    38    17    44 1   
    39    18    19 1   
    40    19    20 1   
    41    19    21 1   
    42    22    23 1   
    43    22    45 1   
    44    22    46 1   
    45    23    24 1   
    46    23    47 1   
    47    23    48 1   
    48    24    25 1   
    49    24    49 1   
    50    24    50 1   
    51    25    26 1   
    52    25    51 1   
    53    25    52 1   
    54    26    53 1   
    55    26    54 1   
    56    27    28 ar  
    57    27    36 1   
    58    28    35 1   
    59    30    31 ar  
    60    30    55 1   
    61    31    56 1   
    62    32    33 ar  
    63    32    57 1   
    64    33    58 1   
@<TRIPOS>SUBSTRUCTURE
     1 9LA         1 TEMP              0 ****  ****    0 ROOT
