@<TRIPOS>MOLECULE
9LB
   40    42     1     0     0
SMALL
abcg2


@<TRIPOS>ATOM
      1 O6           3.0450     3.5010     0.0190 oh         1 9LB      -0.704000
      2 C6           3.7770     2.3750    -0.3990 c3         1 9LB       0.171600
      3 C5           3.1760     1.1380     0.2320 c6         1 9LB       0.142300
      4 C4           3.9790    -0.1270    -0.0860 c6         1 9LB       0.102300
      5 O4           5.2760    -0.0760     0.4680 oh         1 9LB      -0.726000
      6 C3           3.2770    -1.3410     0.5100 c6         1 9LB       0.136300
      7 O3           3.9090    -2.5410     0.1430 oh         1 9LB      -0.658000
      8 O5           1.8600     1.0010    -0.2680 os         1 9LB      -0.413000
      9 C1           1.1500    -0.0600     0.3160 c6         1 9LB       0.158000
     10 C2           1.8230    -1.4110     0.0500 c6         1 9LB       0.134500
     11 N2           1.0290    -2.4520     0.6680 n8         1 9LB      -0.989200
     12 C14         -0.2280    -0.0420    -0.2540 cc         1 9LB       0.404800
     13 N1          -0.5380    -0.0750    -1.5190 nd         1 9LB      -0.336000
     14 N3          -1.8860    -0.0470    -1.6140 nd         1 9LB      -0.359000
     15 C13         -2.3790     0.0010    -0.4030 cc         1 9LB       0.444000
     16 N5          -1.3560     0.0080     0.4840 na         1 9LB      -0.481000
     17 C12         -3.7960     0.0440    -0.0560 ca         1 9LB      -0.124500
     18 C7          -4.7440     0.2040    -1.0680 ca         1 9LB      -0.085000
     19 C8          -6.0940     0.2460    -0.7600 ca         1 9LB      -0.112500
     20 C9          -6.5160     0.1310     0.5590 ca         1 9LB      -0.098000
     21 C10         -5.5770    -0.0300     1.5690 ca         1 9LB      -0.112500
     22 C11         -4.2250    -0.0740     1.2650 ca         1 9LB      -0.085000
     23 H1           3.4380     4.2790    -0.3860 ho         1 9LB       0.506000
     24 H2           3.7640     2.2610    -1.4920 h1         1 9LB       0.027700
     25 H3           4.8280     2.4430    -0.0950 h1         1 9LB       0.027700
     26 H4           3.1510     1.2720     1.3260 h1         1 9LB       0.058700
     27 H5           4.0210    -0.2500    -1.1790 h1         1 9LB       0.063700
     28 H6           5.8840     0.2900    -0.1800 ho         1 9LB       0.513000
     29 H7           3.2800    -1.2200     1.6080 h1         1 9LB       0.036700
     30 H8           4.8260    -2.4940     0.4330 ho         1 9LB       0.461000
     31 H9           1.0750     0.0820     1.4080 h1         1 9LB       0.032700
     32 H10          1.8100    -1.5770    -1.0330 h1         1 9LB       0.104700
     33 H11          1.3600    -3.3600     0.3720 hn         1 9LB       0.405000
     34 H12          1.1400    -2.4270     1.6760 hn         1 9LB       0.405000
     35 H15         -4.4210     0.2990    -2.0960 ha         1 9LB       0.121000
     36 H16         -6.8190     0.3730    -1.5520 ha         1 9LB       0.116000
     37 H17         -7.5710     0.1650     0.7970 ha         1 9LB       0.115000
     38 H18         -5.8960    -0.1250     2.5990 ha         1 9LB       0.116000
     39 H19         -3.5150    -0.2080     2.0720 ha         1 9LB       0.121000
     40 H13         -1.4080     0.0600     1.4900 hn         1 9LB       0.359000
@<TRIPOS>BOND
     1     1     2 1   
     2     1    23 1   
     3     2     3 1   
     4     2    24 1   
     5     2    25 1   
     6     3     4 1   
     7     3     8 1   
     8     3    26 1   
     9     4     5 1   
    10     4     6 1   
    11     4    27 1   
    12     5    28 1   
    13     6     7 1   
    14     6    10 1   
    15     6    29 1   
    16     7    30 1   
    17     8     9 1   
    18     9    10 1   
    19     9    12 1   
    20     9    31 1   
    21    10    11 1   
    22    10    32 1   
    23    11    33 1   
    24    11    34 1   
    25    12    13 2   
    26    12    16 1   
    27    13    14 1   
    28    14    15 2   
    29    15    16 1   
    30    15    17 1   
    31    16    40 1   
    32    17    18 ar  
    33    17    22 ar  
    34    18    19 ar  
    35    18    35 1   
    36    19    20 ar  
    37    19    36 1   
    38    20    21 ar  
    39    20    37 1   
    40    21    22 ar  
    41    21    38 1   
    42    22    39 1   
@<TRIPOS>SUBSTRUCTURE
     1 9LB         1 TEMP              0 ****  ****    0 ROOT
