@<TRIPOS>MOLECULE
9LB
   40    42     1     0     0
SMALL
No Charge or Current Charge


@<TRIPOS>ATOM
      1 O6           3.0660     3.6100     0.0420 oh         1 9LB      -0.704000
      2 C6           3.8650     2.4430    -0.2370 c3         1 9LB       0.171600
      3 C5           3.2340     1.1190     0.3100 c6         1 9LB       0.142300
      4 C4           4.0640    -0.1520    -0.0590 c6         1 9LB       0.102300
      5 O4           5.4040    -0.1110     0.4850 oh         1 9LB      -0.726000
      6 C3           3.3210    -1.4080     0.4810 c6         1 9LB       0.136300
      7 O3           4.0520    -2.5960     0.1320 oh         1 9LB      -0.658000
      8 O5           1.8970     0.9970    -0.2400 os         1 9LB      -0.413000
      9 C1           1.1210    -0.1210     0.2690 c6         1 9LB       0.158000
     10 C2           1.8520    -1.4660    -0.0520 c6         1 9LB       0.134500
     11 N2           1.1450    -2.6660     0.5010 n8         1 9LB      -0.989200
     12 C14         -0.2850    -0.1210    -0.3150 cc         1 9LB       0.404800
     13 N1          -0.6280    -0.1750    -1.5950 nd         1 9LB      -0.336000
     14 N3          -1.9990    -0.1230    -1.6800 nd         1 9LB      -0.359000
     15 C13         -2.4810    -0.0280    -0.4520 cc         1 9LB       0.444000
     16 N5          -1.4350    -0.0150     0.4270 na         1 9LB      -0.481000
     17 C12         -3.9010     0.0580    -0.0780 ca         1 9LB      -0.124500
     18 C7          -4.9050     0.0390    -1.0740 ca         1 9LB      -0.085000
     19 C8          -6.2640     0.1210    -0.7250 ca         1 9LB      -0.112500
     20 C9          -6.6400     0.2220     0.6240 ca         1 9LB      -0.098000
     21 C10         -5.6550     0.2410     1.6230 ca         1 9LB      -0.112500
     22 C11         -4.2950     0.1600     1.2770 ca         1 9LB      -0.085000
     23 H1           3.5100     4.3740    -0.3960 ho         1 9LB       0.506000
     24 H2           4.0030     2.3340    -1.3210 h1         1 9LB       0.027700
     25 H3           4.8610     2.5620     0.2100 h1         1 9LB       0.027700
     26 H4           3.1600     1.2030     1.4050 h1         1 9LB       0.058700
     27 H5           4.1050    -0.2240    -1.1580 h1         1 9LB       0.063700
     28 H6           5.9660     0.4110    -0.1360 ho         1 9LB       0.513000
     29 H7           3.2790    -1.3210     1.5780 h1         1 9LB       0.036700
     30 H8           4.9960    -2.3560     0.2800 ho         1 9LB       0.461000
     31 H9           1.0540    -0.0090     1.3610 h1         1 9LB       0.032700
     32 H10          1.8910    -1.5760    -1.1480 h1         1 9LB       0.104700
     33 H11          1.7480    -3.4780     0.3180 hn         1 9LB       0.405000
     34 H12          1.1510    -2.6150     1.5270 hn         1 9LB       0.405000
     35 H15         -4.6360    -0.0380    -2.1250 ha         1 9LB       0.121000
     36 H16         -7.0260     0.1060    -1.5010 ha         1 9LB       0.116000
     37 H17         -7.6930     0.2850     0.8930 ha         1 9LB       0.115000
     38 H18         -5.9450     0.3200     2.6690 ha         1 9LB       0.116000
     39 H19         -3.5540     0.1770     2.0720 ha         1 9LB       0.121000
     40 H13         -1.4950     0.0540     1.4300 hn         1 9LB       0.359000
@<TRIPOS>BOND
     1     1     2 1   
     2     1    23 1   
     3     2     3 1   
     4     2    24 1   
     5     2    25 1   
     6     3     4 1   
     7     3     8 1   
     8     3    26 1   
     9     4     5 1   
    10     4     6 1   
    11     4    27 1   
    12     5    28 1   
    13     6     7 1   
    14     6    10 1   
    15     6    29 1   
    16     7    30 1   
    17     8     9 1   
    18     9    10 1   
    19     9    12 1   
    20     9    31 1   
    21    10    11 1   
    22    10    32 1   
    23    11    33 1   
    24    11    34 1   
    25    12    13 2   
    26    12    16 1   
    27    13    14 1   
    28    14    15 2   
    29    15    16 1   
    30    15    17 1   
    31    16    40 1   
    32    17    18 ar  
    33    17    22 ar  
    34    18    19 ar  
    35    18    35 1   
    36    19    20 ar  
    37    19    36 1   
    38    20    21 ar  
    39    20    37 1   
    40    21    22 ar  
    41    21    38 1   
    42    22    39 1   
@<TRIPOS>SUBSTRUCTURE
     1 9LB         1 TEMP              0 ****  ****    0 ROOT
