@<TRIPOS>MOLECULE
9LB
   40    42     1     0     0
SMALL
bcc


@<TRIPOS>ATOM
      1 N6           3.0450     3.5010     0.0190 oh         1 9LB      -0.309000
      2 N6           3.7770     2.3750    -0.3990 c3         1 9LB      -0.002000
      3 N5           3.1760     1.1380     0.2320 c6         1 9LB       0.008000
      4 N4           3.9790    -0.1270    -0.0860 c6         1 9LB      -0.032000
      5 N4           5.2760    -0.0760     0.4680 oh         1 9LB      -0.331000
      6 N3           3.2770    -1.3410     0.5100 c6         1 9LB       0.002000
      7 N3           3.9090    -2.5410     0.1430 oh         1 9LB      -0.323000
      8 N5           1.8600     1.0010    -0.2680 os         1 9LB      -0.223000
      9 N1           1.1500    -0.0600     0.3160 c6         1 9LB      -0.000500
     10 N2           1.8230    -1.4110     0.0500 c6         1 9LB      -0.063000
     11 N2           1.0290    -2.4520     0.6680 n8         1 9LB      -0.311000
     12 N14         -0.2280    -0.0420    -0.2540 cc         1 9LB       0.247300
     13 N1          -0.5380    -0.0750    -1.5190 nd         1 9LB      -0.242800
     14 N3          -1.8860    -0.0470    -1.6140 nd         1 9LB      -0.265800
     15 N13         -2.3790     0.0010    -0.4030 cc         1 9LB       0.154800
     16 N5          -1.3560     0.0080     0.4840 na         1 9LB      -0.204000
     17 N12         -3.7960     0.0440    -0.0560 cz         1 9LB      -0.017000
     18 N7          -4.7440     0.2040    -1.0680 ca         1 9LB      -0.103000
     19 N8          -6.0940     0.2460    -0.7600 ca         1 9LB      -0.130500
     20 N9          -6.5160     0.1310     0.5590 ca         1 9LB      -0.116000
     21 N10         -5.5770    -0.0300     1.5690 ca         1 9LB      -0.130500
     22 N11         -4.2250    -0.0740     1.2650 ca         1 9LB      -0.103000
     23 N1           3.4380     4.2790    -0.3860 hn         1 9LB       0.206000
     24 N2           3.7640     2.2610    -1.4920 hn         1 9LB       0.067000
     25 N3           4.8280     2.4430    -0.0950 hn         1 9LB       0.067000
     26 N4           3.1510     1.2720     1.3260 hn         1 9LB       0.098000
     27 N5           4.0210    -0.2500    -1.1790 hn         1 9LB       0.103000
     28 N6           5.8840     0.2900    -0.1800 hn         1 9LB       0.213000
     29 N7           3.2800    -1.2200     1.6080 hn         1 9LB       0.076000
     30 N8           4.8260    -2.4940     0.4330 hn         1 9LB       0.221000
     31 N9           1.0750     0.0820     1.4080 hn         1 9LB       0.072000
     32 N10          1.8100    -1.5770    -1.0330 hn         1 9LB       0.144000
     33 N11          1.3600    -3.3600     0.3720 hn         1 9LB       0.145000
     34 N12          1.1400    -2.4270     1.6760 hn         1 9LB       0.145000
     35 N15         -4.4210     0.2990    -2.0960 hn         1 9LB       0.139000
     36 N16         -6.8190     0.3730    -1.5520 hn         1 9LB       0.134000
     37 N17         -7.5710     0.1650     0.7970 hn         1 9LB       0.133000
     38 N18         -5.8960    -0.1250     2.5990 hn         1 9LB       0.134000
     39 N19         -3.5150    -0.2080     2.0720 hn         1 9LB       0.139000
     40 N13         -1.4080     0.0600     1.4900 hn         1 9LB       0.259000
@<TRIPOS>BOND
     1     1     2 1   
     2     1    23 1   
     3     2     3 1   
     4     2    24 1   
     5     2    25 1   
     6     3     4 1   
     7     3     8 1   
     8     3    26 1   
     9     4     5 1   
    10     4     6 1   
    11     4    27 1   
    12     5    28 1   
    13     6     7 1   
    14     6    10 1   
    15     6    29 1   
    16     7    30 1   
    17     8     9 1   
    18     9    10 1   
    19     9    12 1   
    20     9    31 1   
    21    10    11 1   
    22    10    32 1   
    23    11    33 1   
    24    11    34 1   
    25    12    13 2   
    26    12    16 1   
    27    13    14 1   
    28    14    15 2   
    29    15    16 1   
    30    15    17 1   
    31    16    40 1   
    32    17    18 1   
    33    17    22 2   
    34    18    19 ar  
    35    18    35 1   
    36    19    20 ar  
    37    19    36 1   
    38    20    21 ar  
    39    20    37 1   
    40    21    22 ar  
    41    21    38 1   
    42    22    39 1   
@<TRIPOS>SUBSTRUCTURE
     1 9LB         1 TEMP              0 ****  ****    0 ROOT
