@<TRIPOS>MOLECULE
9LC
   79    83     1     0     0
SMALL
abcg2


@<TRIPOS>ATOM
      1 CG         -21.3400   -13.4970     4.1740 c6         1 9LC      -0.094000
      2 O5         -18.6570   -13.5000     8.3060 oh         1 9LC      -0.661000
      3 CD2        -20.1770   -12.6930     3.4990 c6         1 9LC      -0.021500
      4 CE1        -20.0860   -13.4660     6.3940 c6         1 9LC      -0.026500
      5 CE2        -19.3550   -11.9890     4.5350 c2         1 9LC      -0.228200
      6 CZ         -19.2840   -12.3450     5.8120 c2         1 9LC      -0.194200
      7 C1         -19.2710   -14.3420     7.3510 c6         1 9LC       0.176300
      8 C11        -23.7670   -13.2800    -2.4840 c3         1 9LC      -0.083100
      9 C14        -20.7430   -14.3550     5.3210 c6         1 9LC      -0.043700
     10 C15        -22.7320   -13.9030     1.9550 ce         1 9LC      -0.471400
     11 C16        -23.2930   -12.6060     1.5080 c          1 9LC       0.607200
     12 C18        -19.2360   -13.5460     2.5970 c3         1 9LC      -0.124400
     13 C19        -19.3620   -13.2270     1.1020 c3         1 9LC       0.170300
     14 C2         -20.1750   -15.3700     8.0240 c6         1 9LC      -0.115400
     15 C20        -19.0110   -14.4050     0.1900 c3         1 9LC      -0.042700
     16 C21        -17.5510   -14.8440     0.3290 c3         1 9LC      -0.071400
     17 C22        -19.3880   -14.1530    -1.2860 c3         1 9LC      -0.040200
     18 C23        -17.2290   -16.1600    -0.3680 c3         1 9LC      -0.092100
     19 C24        -20.8120   -13.6750    -1.4620 c2         1 9LC      -0.083400
     20 C26        -21.7920   -14.5830    -1.5480 c2         1 9LC      -0.239200
     21 C27        -23.2800   -14.3740    -1.5370 cy         1 9LC      -0.005800
     22 C28        -23.9120   -14.2030    -0.0950 cy         1 9LC       0.102600
     23 C29        -24.1800   -15.6400    -1.6720 cy         1 9LC      -0.070700
     24 C3         -20.9600   -16.1910     7.0090 c6         1 9LC      -0.070400
     25 C30        -23.1000   -14.8200     0.9940 c2         1 9LC       0.257900
     26 C33        -25.0870   -15.0870    -0.5550 cy         1 9LC      -0.068400
     27 C4         -21.7190   -15.2990     6.0330 c6         1 9LC      -0.072400
     28 C5         -20.9870   -12.1780    -1.5040 c3         1 9LC      -0.065900
     29 C6         -21.9210   -14.3740     3.0730 c          1 9LC       0.651300
     30 C7         -22.4130   -12.5610     4.7400 c3         1 9LC      -0.096100
     31 C8         -24.7970   -15.9990    -3.0070 c3         1 9LC      -0.077100
     32 N5N        -24.0820   -12.8850     0.4300 ns         1 9LC      -0.494900
     33 O31        -21.6440   -15.5830     3.0710 o          1 9LC      -0.618100
     34 O32        -23.1250   -11.4790     1.9440 o          1 9LC      -0.555000
     35 O34        -22.8170   -16.0800     0.9870 oh         1 9LC      -0.519100
     36 O4         -18.5490   -12.1210     0.7480 oh         1 9LC      -0.664000
     37 H54        -18.1370   -14.0510     8.8990 ho         1 9LC       0.441000
     38 HD2        -20.6470   -11.9280     2.8710 hc         1 9LC       0.070700
     39 HE1        -20.8820   -13.0160     7.0080 hc         1 9LC       0.067700
     40 H01        -18.7500   -11.1630     4.1750 ha         1 9LC       0.173000
     41 HZ         -18.6450   -11.7830     6.4820 ha         1 9LC       0.191000
     42 H1         -18.5070   -14.8740     6.7620 h1         1 9LC       0.032700
     43 H85        -23.3610   -12.3010    -2.2490 hc         1 9LC       0.041700
     44 H11        -23.4650   -13.5220    -3.5030 hc         1 9LC       0.041700
     45 H84        -24.8540   -13.1840    -2.4810 hc         1 9LC       0.041700
     46 H14        -19.9490   -14.9760     4.8880 hc         1 9LC       0.060700
     47 H86        -19.4070   -14.6100     2.7640 hc         1 9LC       0.061700
     48 H18        -18.1990   -13.3820     2.8990 hc         1 9LC       0.061700
     49 H19        -20.4170   -12.9880     0.9120 h1         1 9LC       0.036700
     50 H21        -20.8730   -14.8370     8.6800 hc         1 9LC       0.044700
     51 H22        -19.5770   -16.0260     8.6630 hc         1 9LC       0.044700
     52 H20        -19.6480   -15.2330     0.5310 hc         1 9LC       0.044700
     53 H87        -17.3080   -14.9500     1.3900 hc         1 9LC       0.048200
     54 H88        -16.8930   -14.0590    -0.0540 hc         1 9LC       0.048200
     55 H9A        -19.2520   -15.0880    -1.8330 hc         1 9LC       0.053200
     56 H89        -18.6930   -13.4320    -1.7280 hc         1 9LC       0.053200
     57 H9C        -16.2070   -16.4750    -0.1530 hc         1 9LC       0.030700
     58 H9B        -17.8960   -16.9570    -0.0320 hc         1 9LC       0.030700
     59 H23        -17.3210   -16.0890    -1.4520 hc         1 9LC       0.030700
     60 H26        -21.4840   -15.6260    -1.5290 ha         1 9LC       0.177000
     61 H29        -23.6320   -16.5090    -1.3030 hc         1 9LC       0.071700
     62 H31        -21.6510   -16.8570     7.5290 hc         1 9LC       0.042200
     63 H32        -20.2740   -16.8340     6.4470 hc         1 9LC       0.042200
     64 H9D        -25.8990   -14.4760    -0.9520 hc         1 9LC       0.065700
     65 H33        -25.5030   -15.7870     0.1690 hc         1 9LC       0.065700
     66 H41        -22.4650   -14.7140     6.5830 hc         1 9LC       0.047200
     67 H42        -22.2680   -15.9220     5.3300 hc         1 9LC       0.047200
     68 H52        -20.1180   -11.6760    -1.0860 hc         1 9LC       0.046700
     69 H53        -21.0820   -11.8310    -2.5360 hc         1 9LC       0.046700
     70 H51        -21.8610   -11.8250    -0.9610 hc         1 9LC       0.046700
     71 H71        -22.0160   -11.9800     5.5700 hc         1 9LC       0.052700
     72 H72        -22.7760   -11.8610     3.9970 hc         1 9LC       0.052700
     73 H73        -23.2650   -13.1290     5.1150 hc         1 9LC       0.052700
     74 H83        -25.4240   -16.8860    -2.9040 hc         1 9LC       0.038367
     75 H81        -25.4230   -15.2010    -3.4050 hc         1 9LC       0.038367
     76 H82        -24.0290   -16.2260    -3.7470 hc         1 9LC       0.038367
     77 H02        -24.4560   -12.1350    -0.1320 hn         1 9LC       0.329500
     78 H34        -22.2670   -16.2120     1.8290 ho         1 9LC       0.546000
     79 H43        -18.8830   -11.3400     1.2010 ho         1 9LC       0.443000
@<TRIPOS>BOND
     1     1     3 1   
     2     1     9 1   
     3     1    29 1   
     4     1    30 1   
     5     2     7 1   
     6     2    37 1   
     7     3     5 1   
     8     3    12 1   
     9     3    38 1   
    10     4     6 1   
    11     4     7 1   
    12     4     9 1   
    13     4    39 1   
    14     5     6 2   
    15     5    40 1   
    16     6    41 1   
    17     7    14 1   
    18     7    42 1   
    19     8    21 1   
    20     8    43 1   
    21     8    44 1   
    22     8    45 1   
    23     9    27 1   
    24     9    46 1   
    25    10    11 1   
    26    10    25 2   
    27    10    29 1   
    28    11    32 1   
    29    11    34 2   
    30    12    13 1   
    31    12    47 1   
    32    12    48 1   
    33    13    15 1   
    34    13    36 1   
    35    13    49 1   
    36    14    24 1   
    37    14    50 1   
    38    14    51 1   
    39    15    16 1   
    40    15    17 1   
    41    15    52 1   
    42    16    18 1   
    43    16    53 1   
    44    16    54 1   
    45    17    19 1   
    46    17    55 1   
    47    17    56 1   
    48    18    57 1   
    49    18    58 1   
    50    18    59 1   
    51    19    20 2   
    52    19    28 1   
    53    20    21 1   
    54    20    60 1   
    55    21    22 1   
    56    21    23 1   
    57    22    25 1   
    58    22    26 1   
    59    22    32 1   
    60    23    26 1   
    61    23    31 1   
    62    23    61 1   
    63    24    27 1   
    64    24    62 1   
    65    24    63 1   
    66    25    35 1   
    67    26    64 1   
    68    26    65 1   
    69    27    66 1   
    70    27    67 1   
    71    28    68 1   
    72    28    69 1   
    73    28    70 1   
    74    29    33 2   
    75    30    71 1   
    76    30    72 1   
    77    30    73 1   
    78    31    74 1   
    79    31    75 1   
    80    31    76 1   
    81    32    77 1   
    82    35    78 1   
    83    36    79 1   
@<TRIPOS>SUBSTRUCTURE
     1 9LC         1 TEMP              0 ****  ****    0 ROOT
