@<TRIPOS>MOLECULE
9LC
   79    83     1     0     0
SMALL
No Charge or Current Charge


@<TRIPOS>ATOM
      1 CG         -21.7550   -13.2630     4.3930 c6         1 9LC      -0.094000
      2 O5         -18.0390   -14.0800     7.7430 oh         1 9LC      -0.661000
      3 CD2        -20.6360   -12.6340     3.4640 c6         1 9LC      -0.021500
      4 CE1        -19.9270   -13.6380     6.2150 c6         1 9LC      -0.026500
      5 CE2        -19.5100   -12.0340     4.3010 c2         1 9LC      -0.228200
      6 CZ         -19.1640   -12.5140     5.5070 c2         1 9LC      -0.194200
      7 C1         -19.0080   -14.7020     6.8890 c6         1 9LC       0.176300
      8 C11        -23.5720   -13.5430    -2.7990 c3         1 9LC      -0.083100
      9 C14        -20.9860   -14.3360     5.2850 c6         1 9LC      -0.043700
     10 C15        -23.1460   -13.6830     2.1210 ce         1 9LC      -0.471400
     11 C16        -23.7370   -12.4830     1.5420 c          1 9LC       0.607200
     12 C18        -19.9240   -13.6560     2.5030 c3         1 9LC      -0.124400
     13 C19        -19.5360   -13.1070     1.1170 c3         1 9LC       0.170300
     14 C2         -19.8670   -15.6800     7.7330 c6         1 9LC      -0.115400
     15 C20        -18.9690   -14.2030     0.1460 c3         1 9LC      -0.042700
     16 C21        -17.4880   -14.5960     0.4440 c3         1 9LC      -0.071400
     17 C22        -19.2140   -13.8380    -1.3490 c3         1 9LC      -0.040200
     18 C23        -16.9910   -15.8560    -0.2980 c3         1 9LC      -0.092100
     19 C24        -20.6890   -13.5560    -1.5930 c2         1 9LC      -0.083400
     20 C26        -21.5790   -14.5730    -1.5780 c2         1 9LC      -0.239200
     21 C27        -23.0990   -14.4150    -1.5950 cy         1 9LC      -0.005800
     22 C28        -23.7210   -14.1280    -0.1490 cy         1 9LC       0.102600
     23 C29        -23.8660   -15.8140    -1.5080 cy         1 9LC      -0.070700
     24 C3         -20.9940   -16.3320     6.8930 c6         1 9LC      -0.070400
     25 C30        -23.0470   -14.6180     1.1640 c2         1 9LC       0.257900
     26 C33        -24.9020   -15.0580    -0.6030 cy         1 9LC      -0.068400
     27 C4         -21.8670   -15.2760     6.1650 c6         1 9LC      -0.072400
     28 C5         -20.9880   -12.0610    -1.7030 c3         1 9LC      -0.065900
     29 C6         -22.9870   -13.8490     3.5860 c          1 9LC       0.651300
     30 C7         -22.4010   -12.1260     5.2740 c3         1 9LC      -0.096100
     31 C8         -24.4020   -16.5560    -2.7660 c3         1 9LC      -0.077100
     32 N5N        -24.0230   -12.7810     0.2430 ns         1 9LC      -0.494900
     33 O31        -23.9700   -14.2860     4.1710 o          1 9LC      -0.618100
     34 O32        -23.9730   -11.4260     2.0970 o          1 9LC      -0.555000
     35 O34        -22.7110   -15.9050     1.3470 oh         1 9LC      -0.519100
     36 O4         -18.6120   -12.0190     1.2460 oh         1 9LC      -0.664000
     37 H54        -17.4870   -14.8030     8.1110 ho         1 9LC       0.441000
     38 HD2        -21.0910   -11.8430     2.8500 hc         1 9LC       0.070700
     39 HE1        -20.4730   -13.1500     7.0350 hc         1 9LC       0.067700
     40 H01        -18.9650   -11.1990     3.8580 ha         1 9LC       0.173000
     41 HZ         -18.3410   -12.0620     6.0640 ha         1 9LC       0.191000
     42 H1         -18.4950   -15.2700     6.0990 h1         1 9LC       0.032700
     43 H85        -23.4170   -12.4730    -2.6450 hc         1 9LC       0.041700
     44 H11        -23.0470   -13.8310    -3.7170 hc         1 9LC       0.041700
     45 H84        -24.6440   -13.6540    -2.9950 hc         1 9LC       0.041700
     46 H14        -20.4430   -15.0160     4.6160 hc         1 9LC       0.060700
     47 H86        -20.5730   -14.5190     2.3330 hc         1 9LC       0.061700
     48 H18        -19.0330   -14.0760     2.9850 hc         1 9LC       0.061700
     49 H19        -20.4790   -12.7240     0.7170 h1         1 9LC       0.036700
     50 H21        -20.3140   -15.1440     8.5830 hc         1 9LC       0.044700
     51 H22        -19.2300   -16.4660     8.1620 hc         1 9LC       0.044700
     52 H20        -19.5610   -15.1080     0.3290 hc         1 9LC       0.044700
     53 H87        -17.3700   -14.7760     1.5190 hc         1 9LC       0.048200
     54 H88        -16.8250   -13.7590     0.1920 hc         1 9LC       0.048200
     55 H9A        -18.9100   -14.6800    -1.9830 hc         1 9LC       0.053200
     56 H89        -18.5780   -12.9950    -1.6440 hc         1 9LC       0.053200
     57 H9C        -15.9890   -16.1290     0.0520 hc         1 9LC       0.030700
     58 H9B        -17.6590   -16.7060    -0.1140 hc         1 9LC       0.030700
     59 H23        -16.9310   -15.6850    -1.3790 hc         1 9LC       0.030700
     60 H26        -21.2040   -15.5910    -1.4620 ha         1 9LC       0.177000
     61 H29        -23.2980   -16.5750    -0.9630 hc         1 9LC       0.071700
     62 H31        -21.6270   -16.9530     7.5420 hc         1 9LC       0.042200
     63 H32        -20.5490   -17.0130     6.1540 hc         1 9LC       0.042200
     64 H9D        -25.6950   -14.5410    -1.1510 hc         1 9LC       0.065700
     65 H33        -25.3710   -15.6570     0.1850 hc         1 9LC       0.065700
     66 H41        -22.4430   -14.6940     6.8980 hc         1 9LC       0.047200
     67 H42        -22.5920   -15.8220     5.5500 hc         1 9LC       0.047200
     68 H52        -20.2230   -11.4470    -1.2140 hc         1 9LC       0.046700
     69 H53        -21.0290   -11.7460    -2.7520 hc         1 9LC       0.046700
     70 H51        -21.9300   -11.7920    -1.2190 hc         1 9LC       0.046700
     71 H71        -21.6680   -11.5330     5.8290 hc         1 9LC       0.052700
     72 H72        -22.9600   -11.4170     4.6520 hc         1 9LC       0.052700
     73 H73        -23.1050   -12.5330     6.0090 hc         1 9LC       0.052700
     74 H83        -24.9530   -17.4590    -2.4770 hc         1 9LC       0.038367
     75 H81        -25.0810   -15.9290    -3.3530 hc         1 9LC       0.038367
     76 H82        -23.5750   -16.8620    -3.4180 hc         1 9LC       0.038367
     77 H02        -24.4730   -12.0970    -0.3510 hn         1 9LC       0.329500
     78 H34        -22.6860   -16.0720     2.3100 ho         1 9LC       0.546000
     79 H43        -17.8830   -12.3380     1.8170 ho         1 9LC       0.443000
@<TRIPOS>BOND
     1     1     3 1   
     2     1     9 1   
     3     1    29 1   
     4     1    30 1   
     5     2     7 1   
     6     2    37 1   
     7     3     5 1   
     8     3    12 1   
     9     3    38 1   
    10     4     6 1   
    11     4     7 1   
    12     4     9 1   
    13     4    39 1   
    14     5     6 2   
    15     5    40 1   
    16     6    41 1   
    17     7    14 1   
    18     7    42 1   
    19     8    21 1   
    20     8    43 1   
    21     8    44 1   
    22     8    45 1   
    23     9    27 1   
    24     9    46 1   
    25    10    11 1   
    26    10    25 2   
    27    10    29 1   
    28    11    32 1   
    29    11    34 2   
    30    12    13 1   
    31    12    47 1   
    32    12    48 1   
    33    13    15 1   
    34    13    36 1   
    35    13    49 1   
    36    14    24 1   
    37    14    50 1   
    38    14    51 1   
    39    15    16 1   
    40    15    17 1   
    41    15    52 1   
    42    16    18 1   
    43    16    53 1   
    44    16    54 1   
    45    17    19 1   
    46    17    55 1   
    47    17    56 1   
    48    18    57 1   
    49    18    58 1   
    50    18    59 1   
    51    19    20 2   
    52    19    28 1   
    53    20    21 1   
    54    20    60 1   
    55    21    22 1   
    56    21    23 1   
    57    22    25 1   
    58    22    26 1   
    59    22    32 1   
    60    23    26 1   
    61    23    31 1   
    62    23    61 1   
    63    24    27 1   
    64    24    62 1   
    65    24    63 1   
    66    25    35 1   
    67    26    64 1   
    68    26    65 1   
    69    27    66 1   
    70    27    67 1   
    71    28    68 1   
    72    28    69 1   
    73    28    70 1   
    74    29    33 2   
    75    30    71 1   
    76    30    72 1   
    77    30    73 1   
    78    31    74 1   
    79    31    75 1   
    80    31    76 1   
    81    32    77 1   
    82    35    78 1   
    83    36    79 1   
@<TRIPOS>SUBSTRUCTURE
     1 9LC         1 TEMP              0 ****  ****    0 ROOT
