@<TRIPOS>MOLECULE
9LE
   47    50     1     0     0
SMALL
No Charge or Current Charge


@<TRIPOS>ATOM
      1 O6           3.8310     0.5120     3.5250 oh         1 9LE      -0.704000
      2 C6           4.2250     1.2260     2.3370 c3         1 9LE       0.171600
      3 C5           4.0580     0.3860     1.0260 c6         1 9LE       0.141300
      4 C4           4.4200     1.1870    -0.2640 c6         1 9LE       0.101300
      5 O4           5.7950     1.6380    -0.2650 oh         1 9LE      -0.725000
      6 C3           4.1720     0.2760    -1.5010 c6         1 9LE       0.135300
      7 O3           4.4790     0.9970    -2.7070 oh         1 9LE      -0.659000
      8 O5           2.6770    -0.0530     0.9470 os         1 9LE      -0.416000
      9 C1           2.3780    -0.9570    -0.1530 c6         1 9LE       0.158000
     10 C2           2.7060    -0.2670    -1.5190 c6         1 9LE       0.137500
     11 N2           2.5060    -1.1720    -2.6970 n8         1 9LE      -0.985200
     12 C19          0.9210    -1.4060    -0.1220 cc         1 9LE       0.425800
     13 N1           0.5360    -2.7290    -0.1230 na         1 9LE      -0.280500
     14 C18         -0.8420    -2.7820    -0.0690 cc         1 9LE      -0.208000
     15 C17         -1.2500    -1.4730    -0.0300 cd         1 9LE       0.297500
     16 N5          -0.1570    -0.6290    -0.0580 nd         1 9LE      -0.650000
     17 C16         -2.6430    -0.9780     0.0360 ca         1 9LE      -0.099500
     18 C11         -3.7280    -1.8830     0.0660 ca         1 9LE      -0.100000
     19 C10         -5.0520    -1.4150     0.1290 ca         1 9LE      -0.105000
     20 C9          -5.3140    -0.0350     0.1640 ca         1 9LE      -0.037000
     21 C15         -6.6390     0.4370     0.2270 ca         1 9LE      -0.100000
     22 C14         -6.8940     1.8190     0.2620 ca         1 9LE      -0.109000
     23 C13         -5.8260     2.7320     0.2330 ca         1 9LE      -0.114000
     24 C12         -4.5010     2.2640     0.1700 ca         1 9LE      -0.093000
     25 C8          -4.2410     0.8810     0.1350 ca         1 9LE      -0.038000
     26 C7          -2.9160     0.4080     0.0720 ca         1 9LE      -0.072000
     27 H1           3.9070     1.1430     4.2780 ho         1 9LE       0.505000
     28 H2           3.6280     2.1420     2.2350 h1         1 9LE       0.026200
     29 H3           5.2770     1.5290     2.4220 h1         1 9LE       0.026200
     30 H4           4.7070    -0.4990     1.1030 h1         1 9LE       0.056700
     31 H5           3.7400     2.0510    -0.3320 h1         1 9LE       0.061700
     32 H6           5.8370     2.4780     0.2520 ho         1 9LE       0.512000
     33 H7           4.8500    -0.5870    -1.4160 h1         1 9LE       0.034700
     34 H8           5.2980     1.4990    -2.4900 ho         1 9LE       0.461000
     35 H9           3.0270    -1.8380    -0.0420 h1         1 9LE       0.030700
     36 H10          2.0230     0.5900    -1.6330 h1         1 9LE       0.105700
     37 H11          2.8080    -0.6490    -3.5290 hn         1 9LE       0.403000
     38 H12          3.1940    -1.9330    -2.6550 hn         1 9LE       0.403000
     39 H14          1.1720    -3.5160    -0.1630 hn         1 9LE       0.351000
     40 H15         -1.4040    -3.7080    -0.0620 h4         1 9LE       0.158000
     41 H17         -3.5550    -2.9550     0.0400 ha         1 9LE       0.105000
     42 H18         -5.8720    -2.1290     0.1510 ha         1 9LE       0.110000
     43 H19         -7.4710    -0.2640     0.2500 ha         1 9LE       0.110000
     44 H20         -7.9180     2.1820     0.3110 ha         1 9LE       0.110000
     45 H21         -6.0240     3.8010     0.2600 ha         1 9LE       0.110000
     46 H22         -3.6800     2.9780     0.1480 ha         1 9LE       0.114000
     47 H23         -2.0980     1.1250     0.0500 ha         1 9LE       0.135000
@<TRIPOS>BOND
     1     1     2 1   
     2     1    27 1   
     3     2     3 1   
     4     2    28 1   
     5     2    29 1   
     6     3     4 1   
     7     3     8 1   
     8     3    30 1   
     9     4     5 1   
    10     4     6 1   
    11     4    31 1   
    12     5    32 1   
    13     6     7 1   
    14     6    10 1   
    15     6    33 1   
    16     7    34 1   
    17     8     9 1   
    18     9    10 1   
    19     9    12 1   
    20     9    35 1   
    21    10    11 1   
    22    10    36 1   
    23    11    37 1   
    24    11    38 1   
    25    12    13 1   
    26    12    16 2   
    27    13    14 1   
    28    13    39 1   
    29    14    15 2   
    30    14    40 1   
    31    15    16 1   
    32    15    17 1   
    33    17    18 ar  
    34    17    26 ar  
    35    18    19 ar  
    36    18    41 1   
    37    19    20 ar  
    38    19    42 1   
    39    20    21 ar  
    40    20    25 ar  
    41    21    22 ar  
    42    21    43 1   
    43    22    23 ar  
    44    22    44 1   
    45    23    24 ar  
    46    23    45 1   
    47    24    25 ar  
    48    24    46 1   
    49    25    26 ar  
    50    26    47 1   
@<TRIPOS>SUBSTRUCTURE
     1 9LE         1 TEMP              0 ****  ****    0 ROOT
