@<TRIPOS>MOLECULE
9LE
   47    50     1     0     0
SMALL
bcc


@<TRIPOS>ATOM
      1 N6           3.9470     0.2080     3.3970 oh         1 9LE      -0.309000
      2 N6           4.1370     1.0900     2.3180 c3         1 9LE      -0.002000
      3 N5           3.9770     0.3290     1.0210 c6         1 9LE       0.007000
      4 N4           4.2780     1.2020    -0.2020 c6         1 9LE      -0.033000
      5 N4           5.6240     1.6270    -0.2290 oh         1 9LE      -0.330000
      6 N3           4.0270     0.3990    -1.4720 c6         1 9LE       0.001000
      7 N3           4.1880     1.1840    -2.6270 oh         1 9LE      -0.324000
      8 N5           2.6420    -0.1310     0.9540 os         1 9LE      -0.226000
      9 N1           2.3820    -0.9390    -0.1700 c6         1 9LE      -0.000500
     10 N2           2.6130    -0.1760    -1.4780 c6         1 9LE      -0.060000
     11 N2           2.3160    -1.0560    -2.5880 n8         1 9LE      -0.307000
     12 N19          0.9700    -1.4050    -0.0700 cc         1 9LE       0.268300
     13 N1           0.6200    -2.7030     0.0320 na         1 9LE      -0.167000
     14 N18         -0.7360    -2.7700     0.0990 cc         1 9LE      -0.151000
     15 N17         -1.1660    -1.4660     0.0380 cd         1 9LE       0.096800
     16 N5          -0.0860    -0.6340    -0.0670 n2         1 9LE      -0.463600
     17 N16         -2.5350    -0.9610     0.0740 cz         1 9LE       0.008000
     18 N11         -3.6290    -1.8620     0.1580 ca         1 9LE      -0.118000
     19 N10         -4.9150    -1.4100     0.1900 ca         1 9LE      -0.123000
     20 N9          -5.2020    -0.0240     0.1410 cz         1 9LE      -0.037000
     21 N15         -6.5240     0.4750     0.1710 ca         1 9LE      -0.118000
     22 N14         -6.7620     1.8220     0.1230 ca         1 9LE      -0.127000
     23 N13         -5.6850     2.7300     0.0410 ca         1 9LE      -0.132000
     24 N12         -4.3950     2.2740     0.0100 ca         1 9LE      -0.111000
     25 N8          -4.1170     0.8860     0.0580 cz         1 9LE      -0.038000
     26 N7          -2.7960     0.3890     0.0260 ca         1 9LE      -0.090000
     27 N1           4.0610     0.7070     4.2110 hn         1 9LE       0.205000
     28 N2           3.4170     1.9200     2.3350 hn         1 9LE       0.065500
     29 N3           5.1390     1.5340     2.3350 hn         1 9LE       0.065500
     30 N4           4.6710    -0.5280     1.0180 hn         1 9LE       0.096000
     31 N5           3.5920     2.0630    -0.1940 hn         1 9LE       0.101000
     32 N6           5.7010     2.4520     0.2590 hn         1 9LE       0.212000
     33 N7           4.7340    -0.4500    -1.4760 hn         1 9LE       0.074000
     34 N8           5.0840     1.5370    -2.6240 hn         1 9LE       0.221000
     35 N9           3.0460    -1.8190    -0.1650 hn         1 9LE       0.070000
     36 N10          1.8980     0.6550    -1.5070 hn         1 9LE       0.145000
     37 N11          2.3440    -0.5380    -3.4570 hn         1 9LE       0.143000
     38 N12          3.0270    -1.7750    -2.6670 hn         1 9LE       0.143000
     39 N14          1.2500    -3.4900     0.0520 hn         1 9LE       0.251000
     40 N15         -1.2570    -3.7080     0.1850 hn         1 9LE       0.176000
     41 N17         -3.4470    -2.9290     0.1940 hn         1 9LE       0.123000
     42 N18         -5.7350    -2.1150     0.2520 hn         1 9LE       0.128000
     43 N19         -7.3480    -0.2260     0.2340 hn         1 9LE       0.128000
     44 N20         -7.7770     2.1960     0.1460 hn         1 9LE       0.128000
     45 N21         -5.8830     3.7930     0.0040 hn         1 9LE       0.128000
     46 N22         -3.5690     2.9720    -0.0520 hn         1 9LE       0.132000
     47 N23         -1.9750     1.0930    -0.0360 hn         1 9LE       0.153000
@<TRIPOS>BOND
     1     1     2 1   
     2     1    27 1   
     3     2     3 1   
     4     2    28 1   
     5     2    29 1   
     6     3     4 1   
     7     3     8 1   
     8     3    30 1   
     9     4     5 1   
    10     4     6 1   
    11     4    31 1   
    12     5    32 1   
    13     6     7 1   
    14     6    10 1   
    15     6    33 1   
    16     7    34 1   
    17     8     9 1   
    18     9    10 1   
    19     9    12 1   
    20     9    35 1   
    21    10    11 1   
    22    10    36 1   
    23    11    37 1   
    24    11    38 1   
    25    12    13 1   
    26    12    16 2   
    27    13    14 1   
    28    13    39 1   
    29    14    15 2   
    30    14    40 1   
    31    15    16 1   
    32    15    17 1   
    33    17    18 1   
    34    17    26 2   
    35    18    19 ar  
    36    18    41 1   
    37    19    20 1   
    38    19    42 1   
    39    20    21 1   
    40    20    25 2   
    41    21    22 ar  
    42    21    43 1   
    43    22    23 ar  
    44    22    44 1   
    45    23    24 ar  
    46    23    45 1   
    47    24    25 1   
    48    24    46 1   
    49    25    26 1   
    50    26    47 1   
@<TRIPOS>SUBSTRUCTURE
     1 9LE         1 TEMP              0 ****  ****    0 ROOT
