@<TRIPOS>MOLECULE
9LF
  103   106     1     0     0
SMALL
abcg2


@<TRIPOS>ATOM
      1 C01         96.1950    59.8250   271.8870 c3         1 9LF       0.141900
      2 O02         95.9720    60.1470   273.2380 os         1 9LF      -0.458000
      3 C03         95.6670    61.5030   273.4610 c3         1 9LF       0.209500
      4 C04         94.2160    61.7900   273.1510 c2         1 9LF      -0.246200
      5 C05         93.6230    62.9410   273.4240 c2         1 9LF      -0.059900
      6 O06         92.3130    63.1740   273.0680 os         1 9LF      -0.338100
      7 C07         92.1220    64.2140   272.1630 c5         1 9LF       0.282000
      8 C08         90.6760    64.2300   271.7390 c3         1 9LF      -0.077100
      9 O09         92.4510    65.4590   272.7820 os         1 9LF      -0.336100
     10 C10         93.5050    65.9910   272.1520 ca         1 9LF       0.240100
     11 C11         93.9820    67.2520   272.5150 ca         1 9LF      -0.228300
     12 C12         93.3640    68.0730   273.6090 c3         1 9LF      -0.040800
     13 C13         95.0440    67.7160   271.7710 ca         1 9LF       0.239100
     14 O14         95.5400    68.9380   271.9950 oh         1 9LF      -0.565100
     15 C15         95.7030    66.9530   270.7480 ca         1 9LF      -0.157000
     16 C16         96.8610    67.4390   270.0780 ca         1 9LF       0.185100
     17 O17         97.4200    68.6330   270.2970 oh         1 9LF      -0.524100
     18 C18         97.4980    66.6410   269.1400 ca         1 9LF      -0.099000
     19 C19         97.0240    65.3580   268.8840 ca         1 9LF      -0.044000
     20 C20         95.9320    64.8630   269.5450 ca         1 9LF       0.061100
     21 O21         95.6120    63.5360   269.3780 os         1 9LF      -0.351200
     22 C22         94.8860    63.1780   268.3050 c          1 9LF       0.565100
     23 O23         94.4680    63.9520   267.4930 o          1 9LF      -0.448000
     24 C24         94.7610    61.6720   268.2460 c3         1 9LF       0.115600
     25 O25         93.8510    61.2500   267.2790 oh         1 9LF      -0.631000
     26 C26         95.2050    65.6490   270.4490 ca         1 9LF       0.119000
     27 C27         94.0310    65.2110   271.1350 ca         1 9LF      -0.307600
     28 C28         93.1120    64.1080   270.9800 c          1 9LF       0.576700
     29 O29         92.9820    63.2460   270.1380 o          1 9LF      -0.511100
     30 N30         98.6310    67.1420   268.4740 ns         1 9LF      -0.151000
     31 C31         99.8370    66.5320   268.3370 c          1 9LF       0.611300
     32 O32        100.6650    66.9390   267.5360 o          1 9LF      -0.587100
     33 C33        100.1300    65.3500   269.2000 ce         1 9LF      -0.178400
     34 C34        100.6520    64.1510   268.4700 c3         1 9LF      -0.042900
     35 C35         99.9740    65.4660   270.5260 cf         1 9LF      -0.128000
     36 C36        100.2570    64.4690   271.5520 cf         1 9LF      -0.194000
     37 C37        101.2850    63.6160   271.5600 c2         1 9LF      -0.182200
     38 C38        101.5130    62.4770   272.5160 c3         1 9LF      -0.028500
     39 C39        101.1750    61.1920   271.7500 c3         1 9LF      -0.091100
     40 C40        100.7690    62.6250   273.8460 c3         1 9LF       0.179300
     41 O41        101.2750    63.8050   274.4350 oh         1 9LF      -0.657000
     42 C42        100.9080    61.3690   274.7550 c3         1 9LF      -0.087700
     43 C43        101.2880    61.6810   276.2000 c3         1 9LF      -0.088100
     44 C44         99.6970    60.4240   274.5960 c3         1 9LF       0.181300
     45 O45        100.1920    59.1270   274.8680 oh         1 9LF      -0.664000
     46 C46         98.3710    60.6430   275.3790 c3         1 9LF      -0.085700
     47 C47         98.4660    60.4160   276.8890 c3         1 9LF      -0.078100
     48 C48         97.6370    61.9250   274.9570 c3         1 9LF       0.188300
     49 O49         98.0680    62.9830   275.8290 os         1 9LF      -0.453100
     50 C50         98.0070    64.2440   275.4000 c          1 9LF       0.591100
     51 C51         98.4680    65.2020   276.4580 c3         1 9LF      -0.158100
     52 O52         97.6110    64.5620   274.3060 o          1 9LF      -0.492000
     53 C53         96.0930    61.8790   274.8870 c3         1 9LF      -0.069700
     54 C54         95.3940    61.0450   275.9510 c3         1 9LF      -0.080100
     55 H1          96.5100    58.7840   271.8400 h1         1 9LF       0.032367
     56 H2          95.2970    59.9360   271.2690 h1         1 9LF       0.032367
     57 H3          96.9840    60.4480   271.4490 h1         1 9LF       0.032367
     58 H4          96.2650    62.1230   272.7720 h1         1 9LF       0.057700
     59 H5          93.6600    61.0280   272.6130 ha         1 9LF       0.198000
     60 H6          94.1200    63.7540   273.9480 h4         1 9LF       0.187000
     61 H7          90.0270    64.3680   272.6040 hc         1 9LF       0.066367
     62 H8          90.4930    65.0410   271.0350 hc         1 9LF       0.066367
     63 H9          90.4170    63.2910   271.2540 hc         1 9LF       0.066367
     64 H10         92.9390    69.0050   273.2290 hc         1 9LF       0.050033
     65 H11         92.5560    67.5370   274.0990 hc         1 9LF       0.050033
     66 H12         94.0910    68.3240   274.3850 hc         1 9LF       0.050033
     67 H13         95.0820    69.4130   272.7020 ho         1 9LF       0.501000
     68 H14         96.9190    69.1280   270.9640 ho         1 9LF       0.497000
     69 H15         97.5440    64.7280   268.1740 ha         1 9LF       0.141000
     70 H16         94.5380    61.2920   269.2480 h1         1 9LF       0.069700
     71 H17         95.7440    61.2750   267.9740 h1         1 9LF       0.069700
     72 H18         92.9650    61.5000   267.5590 ho         1 9LF       0.459000
     73 H19         98.5210    68.0060   267.9610 hn         1 9LF       0.165000
     74 H20        100.5190    63.2450   269.0590 hc         1 9LF       0.046367
     75 H21        100.1380    64.0150   267.5170 hc         1 9LF       0.046367
     76 H22        101.7160    64.2430   268.2450 hc         1 9LF       0.046367
     77 H23         99.5400    66.3880   270.9020 ha         1 9LF       0.183000
     78 H24         99.5480    64.4700   272.3740 ha         1 9LF       0.188000
     79 H25        102.0170    63.6750   270.7600 ha         1 9LF       0.172000
     80 H26        102.5840    62.4370   272.7530 hc         1 9LF       0.067700
     81 H27        101.4000    60.2920   272.3230 hc         1 9LF       0.038367
     82 H28        100.1230    61.1660   271.4620 hc         1 9LF       0.038367
     83 H29        101.7640    61.1420   270.8330 hc         1 9LF       0.038367
     84 H30         99.7090    62.7630   273.6090 h1         1 9LF       0.029700
     85 H31        100.9600    63.8670   275.3410 ho         1 9LF       0.442000
     86 H32        101.7500    60.7910   274.3580 hc         1 9LF       0.071700
     87 H33        101.3580    60.7610   276.7770 hc         1 9LF       0.040700
     88 H34        102.2670    62.1580   276.2470 hc         1 9LF       0.040700
     89 H35        100.5740    62.3250   276.7150 hc         1 9LF       0.040700
     90 H36         99.3990    60.4810   273.5380 h1         1 9LF       0.024700
     91 H37         99.4770    58.4930   274.7500 ho         1 9LF       0.445000
     92 H38         97.7390    59.8390   274.9850 hc         1 9LF       0.062700
     93 H39         99.1080    59.5620   277.1000 hc         1 9LF       0.041367
     94 H40         98.8610    61.2670   277.4360 hc         1 9LF       0.041367
     95 H41         97.4890    60.1860   277.3110 hc         1 9LF       0.041367
     96 H42         97.9660    62.1750   273.9440 h1         1 9LF       0.056700
     97 H43         98.6400    66.1860   276.0290 hc         1 9LF       0.070033
     98 H44         97.7000    65.2890   277.2290 hc         1 9LF       0.070033
     99 H45         99.3760    64.8580   276.9530 hc         1 9LF       0.070033
    100 H46         95.7520    62.9090   275.0170 hc         1 9LF       0.062700
    101 H47         95.6460    61.3980   276.9500 hc         1 9LF       0.042700
    102 H48         94.3120    61.1330   275.8440 hc         1 9LF       0.042700
    103 H49         95.6470    59.9870   275.8900 hc         1 9LF       0.042700
@<TRIPOS>BOND
     1     1     2 1   
     2     1    55 1   
     3     1    56 1   
     4     1    57 1   
     5     2     3 1   
     6     3     4 1   
     7     3    53 1   
     8     3    58 1   
     9     4     5 2   
    10     4    59 1   
    11     5     6 1   
    12     5    60 1   
    13     6     7 1   
    14     7     8 1   
    15     7     9 1   
    16     7    28 1   
    17     8    61 1   
    18     8    62 1   
    19     8    63 1   
    20     9    10 1   
    21    10    11 ar  
    22    10    27 ar  
    23    11    12 1   
    24    11    13 ar  
    25    12    64 1   
    26    12    65 1   
    27    12    66 1   
    28    13    14 1   
    29    13    15 ar  
    30    14    67 1   
    31    15    16 ar  
    32    15    26 ar  
    33    16    17 1   
    34    16    18 ar  
    35    17    68 1   
    36    18    19 ar  
    37    18    30 1   
    38    19    20 ar  
    39    19    69 1   
    40    20    21 1   
    41    20    26 ar  
    42    21    22 1   
    43    22    23 2   
    44    22    24 1   
    45    24    25 1   
    46    24    70 1   
    47    24    71 1   
    48    25    72 1   
    49    26    27 ar  
    50    27    28 1   
    51    28    29 2   
    52    30    31 1   
    53    30    73 1   
    54    31    32 2   
    55    31    33 1   
    56    33    34 1   
    57    33    35 2   
    58    34    74 1   
    59    34    75 1   
    60    34    76 1   
    61    35    36 1   
    62    35    77 1   
    63    36    37 2   
    64    36    78 1   
    65    37    38 1   
    66    37    79 1   
    67    38    39 1   
    68    38    40 1   
    69    38    80 1   
    70    39    81 1   
    71    39    82 1   
    72    39    83 1   
    73    40    41 1   
    74    40    42 1   
    75    40    84 1   
    76    41    85 1   
    77    42    43 1   
    78    42    44 1   
    79    42    86 1   
    80    43    87 1   
    81    43    88 1   
    82    43    89 1   
    83    44    45 1   
    84    44    46 1   
    85    44    90 1   
    86    45    91 1   
    87    46    47 1   
    88    46    48 1   
    89    46    92 1   
    90    47    93 1   
    91    47    94 1   
    92    47    95 1   
    93    48    49 1   
    94    48    53 1   
    95    48    96 1   
    96    49    50 1   
    97    50    51 1   
    98    50    52 2   
    99    51    97 1   
   100    51    98 1   
   101    51    99 1   
   102    53    54 1   
   103    53   100 1   
   104    54   101 1   
   105    54   102 1   
   106    54   103 1   
@<TRIPOS>SUBSTRUCTURE
     1 9LF         1 TEMP              0 ****  ****    0 ROOT
