@<TRIPOS>MOLECULE
9LF
  103   106     1     0     0
SMALL
No Charge or Current Charge


@<TRIPOS>ATOM
      1 C01         95.8940    59.1670   272.5630 c3         1 9LF       0.141900
      2 O02         95.8870    59.9360   273.7810 os         1 9LF      -0.458000
      3 C03         95.6870    61.3500   273.6180 c3         1 9LF       0.209500
      4 C04         94.2160    61.5960   273.3350 c2         1 9LF      -0.246200
      5 C05         93.6730    62.7880   273.0550 c2         1 9LF      -0.059900
      6 O06         92.3370    62.9010   272.7420 os         1 9LF      -0.338100
      7 C07         92.0610    64.0430   271.8650 c5         1 9LF       0.282000
      8 C08         90.5940    63.9350   271.3990 c3         1 9LF      -0.077100
      9 O09         92.2030    65.2740   272.6240 os         1 9LF      -0.336100
     10 C10         93.2530    65.9470   272.0440 ca         1 9LF       0.240100
     11 C11         93.6890    67.1830   272.5260 ca         1 9LF      -0.228300
     12 C12         92.9650    67.8600   273.7010 c3         1 9LF      -0.040800
     13 C13         94.7960    67.7850   271.9010 ca         1 9LF       0.239100
     14 O14         95.1910    69.0140   272.3590 oh         1 9LF      -0.565100
     15 C15         95.5130    67.1180   270.8590 ca         1 9LF      -0.157000
     16 C16         96.6910    67.6840   270.2880 ca         1 9LF       0.185100
     17 O17         97.1520    68.9070   270.6770 oh         1 9LF      -0.524100
     18 C18         97.4570    66.9710   269.3520 ca         1 9LF      -0.099000
     19 C19         97.0320    65.7060   268.9330 ca         1 9LF      -0.044000
     20 C20         95.8490    65.1400   269.4330 ca         1 9LF       0.061100
     21 O21         95.5690    63.8430   269.0710 os         1 9LF      -0.351200
     22 C22         95.5970    63.3650   267.7820 c          1 9LF       0.565100
     23 O23         95.6890    64.0740   266.7870 o          1 9LF      -0.448000
     24 C24         95.2380    61.8590   267.7340 c3         1 9LF       0.115600
     25 O25         93.8060    61.6280   267.7350 oh         1 9LF      -0.631000
     26 C26         95.0620    65.8390   270.3990 ca         1 9LF       0.119000
     27 C27         93.8650    65.3170   270.9730 ca         1 9LF      -0.307600
     28 C28         93.0430    64.1140   270.6450 c          1 9LF       0.576700
     29 O29         93.0260    63.4520   269.6120 o          1 9LF      -0.511100
     30 N30         98.6850    67.5070   268.8720 ns         1 9LF      -0.151000
     31 C31         99.9060    66.8950   268.6030 c          1 9LF       0.611300
     32 O32        100.6880    67.4290   267.8240 o          1 9LF      -0.587100
     33 C33        100.2420    65.5760   269.2870 ce         1 9LF      -0.178400
     34 C34        101.2440    64.7030   268.5340 c3         1 9LF      -0.042900
     35 C35         99.6690    65.1770   270.4730 cf         1 9LF      -0.128000
     36 C36         99.8670    63.9400   271.2250 cf         1 9LF      -0.194000
     37 C37        101.0170    63.2410   271.3660 c2         1 9LF      -0.182200
     38 C38        101.1750    61.9760   272.1980 c3         1 9LF      -0.028500
     39 C39        100.2620    60.8760   271.6080 c3         1 9LF      -0.091100
     40 C40        101.0060    62.2950   273.7290 c3         1 9LF       0.179300
     41 O41        102.0600    63.2110   274.0700 oh         1 9LF      -0.657000
     42 C42        101.0240    61.0710   274.7270 c3         1 9LF      -0.087700
     43 C43        101.5940    61.4250   276.1340 c3         1 9LF      -0.088100
     44 C44         99.6860    60.2290   274.8150 c3         1 9LF       0.181300
     45 O45        100.0160    58.9190   275.2980 oh         1 9LF      -0.664000
     46 C46         98.4330    60.7630   275.6080 c3         1 9LF      -0.085700
     47 C47         98.5950    60.8130   277.1630 c3         1 9LF      -0.078100
     48 C48         97.7810    62.0450   274.9720 c3         1 9LF       0.188300
     49 O49         98.2490    63.1980   275.7090 os         1 9LF      -0.453100
     50 C50         98.2250    64.4360   275.1190 c          1 9LF       0.591100
     51 C51         98.7560    65.5070   276.0600 c3         1 9LF      -0.158100
     52 O52         97.8830    64.6580   273.9670 o          1 9LF      -0.492000
     53 C53         96.2100    62.0900   274.8840 c3         1 9LF      -0.069700
     54 C54         95.4620    61.7060   276.1870 c3         1 9LF      -0.080100
     55 H1          96.0570    58.1050   272.7860 h1         1 9LF       0.032367
     56 H2          94.9400    59.2590   272.0280 h1         1 9LF       0.032367
     57 H3          96.6990    59.5030   271.8970 h1         1 9LF       0.032367
     58 H4          96.2650    61.7150   272.7560 h1         1 9LF       0.057700
     59 H5          93.5900    60.7040   273.3450 ha         1 9LF       0.198000
     60 H6          94.2610    63.7080   273.0480 h4         1 9LF       0.187000
     61 H7          89.9110    63.9220   272.2560 hc         1 9LF       0.066367
     62 H8          90.3200    64.7840   270.7620 hc         1 9LF       0.066367
     63 H9          90.4310    63.0170   270.8240 hc         1 9LF       0.066367
     64 H10         92.5080    68.8080   273.3930 hc         1 9LF       0.050033
     65 H11         92.1580    67.2430   274.1140 hc         1 9LF       0.050033
     66 H12         93.6540    68.0640   274.5300 hc         1 9LF       0.050033
     67 H13         94.5590    69.2930   273.0560 ho         1 9LF       0.501000
     68 H14         96.5190    69.2150   271.3740 ho         1 9LF       0.497000
     69 H15         97.6430    65.1420   268.2330 ha         1 9LF       0.141000
     70 H16         95.7070    61.3820   268.6040 h1         1 9LF       0.069700
     71 H17         95.7010    61.4350   266.8330 h1         1 9LF       0.069700
     72 H18         93.4270    62.2310   268.4280 ho         1 9LF       0.459000
     73 H19         98.6150    68.4590   268.5370 hn         1 9LF       0.165000
     74 H20        101.0150    63.6360   268.6420 hc         1 9LF       0.046367
     75 H21        101.2390    64.9060   267.4570 hc         1 9LF       0.046367
     76 H22        102.2660    64.8710   268.8940 hc         1 9LF       0.046367
     77 H23         98.9630    65.8500   270.9610 ha         1 9LF       0.183000
     78 H24         98.9870    63.5920   271.7700 ha         1 9LF       0.188000
     79 H25        101.9370    63.5870   270.8950 ha         1 9LF       0.172000
     80 H26        102.2020    61.6130   272.0650 hc         1 9LF       0.067700
     81 H27        100.5160    59.8910   272.0190 hc         1 9LF       0.038367
     82 H28         99.2040    61.0890   271.7990 hc         1 9LF       0.038367
     83 H29        100.4000    60.8130   270.5220 hc         1 9LF       0.038367
     84 H30        100.0580    62.8220   273.8540 h1         1 9LF       0.029700
     85 H31        101.9340    63.4510   275.0110 ho         1 9LF       0.442000
     86 H32        101.7650    60.3840   274.2990 hc         1 9LF       0.071700
     87 H33        101.4820    60.5880   276.8330 hc         1 9LF       0.040700
     88 H34        102.6680    61.6430   276.0770 hc         1 9LF       0.040700
     89 H35        101.0950    62.3040   276.5570 hc         1 9LF       0.040700
     90 H36         99.3160    60.0980   273.7970 h1         1 9LF       0.024700
     91 H37         99.2080    58.3690   275.2160 ho         1 9LF       0.445000
     92 H38         97.6970    59.9670   275.4610 hc         1 9LF       0.062700
     93 H39         99.0680    59.9000   277.5430 hc         1 9LF       0.041367
     94 H40         99.1940    61.6650   277.4960 hc         1 9LF       0.041367
     95 H41         97.6240    60.8930   277.6600 hc         1 9LF       0.041367
     96 H42         98.1380    62.1020   273.9360 h1         1 9LF       0.056700
     97 H43         98.7920    66.4970   275.5940 hc         1 9LF       0.070033
     98 H44         98.1500    65.5040   276.9720 hc         1 9LF       0.070033
     99 H45         99.7370    65.1940   276.4330 hc         1 9LF       0.070033
    100 H46         95.9410    63.1370   274.7140 hc         1 9LF       0.062700
    101 H47         95.8280    62.3000   277.0330 hc         1 9LF       0.042700
    102 H48         94.3880    61.9030   276.0890 hc         1 9LF       0.042700
    103 H49         95.5850    60.6430   276.4240 hc         1 9LF       0.042700
@<TRIPOS>BOND
     1     1     2 1   
     2     1    55 1   
     3     1    56 1   
     4     1    57 1   
     5     2     3 1   
     6     3     4 1   
     7     3    53 1   
     8     3    58 1   
     9     4     5 2   
    10     4    59 1   
    11     5     6 1   
    12     5    60 1   
    13     6     7 1   
    14     7     8 1   
    15     7     9 1   
    16     7    28 1   
    17     8    61 1   
    18     8    62 1   
    19     8    63 1   
    20     9    10 1   
    21    10    11 ar  
    22    10    27 ar  
    23    11    12 1   
    24    11    13 ar  
    25    12    64 1   
    26    12    65 1   
    27    12    66 1   
    28    13    14 1   
    29    13    15 ar  
    30    14    67 1   
    31    15    16 ar  
    32    15    26 ar  
    33    16    17 1   
    34    16    18 ar  
    35    17    68 1   
    36    18    19 ar  
    37    18    30 1   
    38    19    20 ar  
    39    19    69 1   
    40    20    21 1   
    41    20    26 ar  
    42    21    22 1   
    43    22    23 2   
    44    22    24 1   
    45    24    25 1   
    46    24    70 1   
    47    24    71 1   
    48    25    72 1   
    49    26    27 ar  
    50    27    28 1   
    51    28    29 2   
    52    30    31 1   
    53    30    73 1   
    54    31    32 2   
    55    31    33 1   
    56    33    34 1   
    57    33    35 2   
    58    34    74 1   
    59    34    75 1   
    60    34    76 1   
    61    35    36 1   
    62    35    77 1   
    63    36    37 2   
    64    36    78 1   
    65    37    38 1   
    66    37    79 1   
    67    38    39 1   
    68    38    40 1   
    69    38    80 1   
    70    39    81 1   
    71    39    82 1   
    72    39    83 1   
    73    40    41 1   
    74    40    42 1   
    75    40    84 1   
    76    41    85 1   
    77    42    43 1   
    78    42    44 1   
    79    42    86 1   
    80    43    87 1   
    81    43    88 1   
    82    43    89 1   
    83    44    45 1   
    84    44    46 1   
    85    44    90 1   
    86    45    91 1   
    87    46    47 1   
    88    46    48 1   
    89    46    92 1   
    90    47    93 1   
    91    47    94 1   
    92    47    95 1   
    93    48    49 1   
    94    48    53 1   
    95    48    96 1   
    96    49    50 1   
    97    50    51 1   
    98    50    52 2   
    99    51    97 1   
   100    51    98 1   
   101    51    99 1   
   102    53    54 1   
   103    53   100 1   
   104    54   101 1   
   105    54   102 1   
   106    54   103 1   
@<TRIPOS>SUBSTRUCTURE
     1 9LF         1 TEMP              0 ****  ****    0 ROOT
