@<TRIPOS>MOLECULE
9LG
   62    66     1     0     0
SMALL
abcg2


@<TRIPOS>ATOM
      1 C4          31.7990    31.0400    -0.1300 cc         1 9LG      -0.237600
      2 C6          31.6120    30.8450    -7.0000 ca         1 9LG      -0.351500
      3 C7          30.5730    31.7540    -1.8930 cd         1 9LG      -0.141300
      4 C8          30.7470    31.8700    -0.4960 cd         1 9LG      -0.131000
      5 C10         32.4100    30.8670     1.1960 c          1 9LG       0.637700
      6 C15         30.1130    32.2400    -4.2720 c6         1 9LG       0.205800
      7 C17         29.6150    32.4120    -2.8360 c6         1 9LG       0.004900
      8 C21         32.7520    30.0720    -7.2260 ca         1 9LG       0.006000
      9 C22         32.5170    27.9860    -1.5860 ca         1 9LG      -0.121300
     10 C24         32.6060    32.6480    -8.2790 ca         1 9LG      -0.171000
     11 C26         33.1650    26.9790    -2.2990 ca         1 9LG      -0.097000
     12 C28         33.3320    32.5650     5.2430 ca         1 9LG      -0.102500
     13 C16         31.5640    32.1310    -7.5320 ca         1 9LG       0.259000
     14 C30         33.7330    31.8640    -8.4960 ca         1 9LG      -0.032000
     15 C29         33.8080    30.5790    -7.9700 ca         1 9LG      -0.147000
     16 N5          30.4950    30.8280    -4.4950 n3         1 9LG      -0.741500
     17 O18         33.5950    30.5500     1.3620 o          1 9LG      -0.611100
     18 N14         31.5800    31.1020     2.2400 ns         1 9LG      -0.499900
     19 C19         32.0440    31.1620     3.6080 c3         1 9LG       0.154300
     20 C23         32.6790    32.4800     4.0120 ca         1 9LG      -0.102300
     21 C27         32.6160    33.6140     3.2070 ca         1 9LG      -0.102500
     22 C33         33.1910    34.8130     3.6250 ca         1 9LG      -0.106500
     23 C35         33.8340    34.8910     4.8540 ca         1 9LG      -0.110000
     24 C34         33.9030    33.7590     5.6650 ca         1 9LG      -0.106500
     25 N2          32.2760    30.4310    -1.2820 na         1 9LG       0.066000
     26 C25         31.2420    27.7420    -1.0760 ca         1 9LG      -0.097000
     27 C31         30.6280    26.5100    -1.2740 ca         1 9LG      -0.104000
     28 C36         31.2820    25.5060    -1.9810 ca         1 9LG      -0.098000
     29 C32         32.5540    25.7440    -2.4930 ca         1 9LG      -0.104000
     30 C3          31.5150    30.8510    -2.3370 cc         1 9LG      -0.147300
     31 C9          31.6830    30.3860    -3.7420 c6         1 9LG       0.268100
     32 H1          30.2060    32.5280     0.1660 ha         1 9LG       0.130000
     33 H2          33.9080    29.5070    -2.1850 h1         1 9LG       0.086200
     34 H3          33.7860    29.3020    -0.4460 h1         1 9LG       0.086200
     35 H4          30.9820    32.8820    -4.4490 h1         1 9LG       0.060200
     36 H5          29.3360    32.5010    -4.9820 h1         1 9LG       0.060200
     37 H6          29.5190    33.4790    -2.6260 hc         1 9LG       0.058700
     38 H7          28.6160    31.9750    -2.7430 hc         1 9LG       0.058700
     39 H8          32.7960    29.0730    -6.8160 ha         1 9LG       0.143000
     40 H9          32.5230    33.6510    -8.6770 ha         1 9LG       0.138000
     41 H10         34.1490    27.1670    -2.7130 ha         1 9LG       0.115000
     42 H11         33.3930    31.6860     5.8760 ha         1 9LG       0.110500
     43 H12         34.5530    32.2640    -9.0770 ha         1 9LG       0.123000
     44 H13         34.6850    29.9690    -8.1390 ha         1 9LG       0.126000
     45 H14         30.6180    31.3320     2.0500 hn         1 9LG       0.320500
     46 H15         31.1840    30.9640     4.2510 h1         1 9LG       0.063700
     47 H16         32.7590    30.3550     3.7720 h1         1 9LG       0.063700
     48 H17         32.1180    33.5660     2.2470 ha         1 9LG       0.110500
     49 H18         33.1340    35.6850     2.9860 ha         1 9LG       0.112500
     50 H19         34.2810    35.8220     5.1790 ha         1 9LG       0.112000
     51 H20         34.4050    33.8070     6.6230 ha         1 9LG       0.112500
     52 H21         30.7220    28.5200    -0.5310 ha         1 9LG       0.115000
     53 H22         29.6360    26.3360    -0.8760 ha         1 9LG       0.115500
     54 H23         30.8020    24.5490    -2.1390 ha         1 9LG       0.116000
     55 H24         33.0680    24.9730    -3.0530 ha         1 9LG       0.115500
     56 H25         31.7410    29.3010    -3.7960 h1         1 9LG       0.068700
     57 H26         32.6020    30.7960    -4.1840 h1         1 9LG       0.068700
     58 C13         33.2110    29.3140    -1.3690 c3         1 9LG       0.103900
     59 S1          30.3090    30.1830    -5.9880 sy         1 9LG       1.202600
     60 F20         30.4840    32.9090    -7.3250 f          1 9LG      -0.163000
     61 O11         30.5620    28.7680    -5.8670 o          1 9LG      -0.535000
     62 O12         29.0400    30.6300    -6.5010 o          1 9LG      -0.535000
@<TRIPOS>BOND
     1     1     4 2   
     2     1     5 1   
     3     1    25 1   
     4     2     8 ar  
     5     2    13 ar  
     6     2    59 1   
     7     3     4 1   
     8     3     7 1   
     9     3    30 2   
    10     4    32 1   
    11     5    17 2   
    12     5    18 1   
    13     6     7 1   
    14     6    16 1   
    15     6    35 1   
    16     6    36 1   
    17     7    37 1   
    18     7    38 1   
    19     8    15 ar  
    20     8    39 1   
    21     9    11 ar  
    22     9    26 ar  
    23     9    58 1   
    24    10    13 ar  
    25    10    14 ar  
    26    10    40 1   
    27    11    29 ar  
    28    11    41 1   
    29    12    20 ar  
    30    12    24 ar  
    31    12    42 1   
    32    13    60 1   
    33    14    15 ar  
    34    14    43 1   
    35    15    44 1   
    36    16    31 1   
    37    16    59 1   
    38    18    19 1   
    39    18    45 1   
    40    19    20 1   
    41    19    46 1   
    42    19    47 1   
    43    20    21 ar  
    44    21    22 ar  
    45    21    48 1   
    46    22    23 ar  
    47    22    49 1   
    48    23    24 ar  
    49    23    50 1   
    50    24    51 1   
    51    25    30 1   
    52    25    58 1   
    53    26    27 ar  
    54    26    52 1   
    55    27    28 ar  
    56    27    53 1   
    57    28    29 ar  
    58    28    54 1   
    59    29    55 1   
    60    30    31 1   
    61    31    56 1   
    62    31    57 1   
    63    33    58 1   
    64    34    58 1   
    65    59    61 2   
    66    59    62 2   
@<TRIPOS>SUBSTRUCTURE
     1 9LG         1 TEMP              0 ****  ****    0 ROOT
