@<TRIPOS>MOLECULE
9LG
   62    66     1     0     0
SMALL
No Charge or Current Charge


@<TRIPOS>ATOM
      1 C4          31.5510    30.8560    -0.1940 cc         1 9LG      -0.237600
      2 C6          31.7880    31.0470    -6.9670 ca         1 9LG      -0.351500
      3 C7          30.4790    31.5910    -2.0480 cd         1 9LG      -0.141300
      4 C8          30.6100    31.7530    -0.6600 cd         1 9LG      -0.131000
      5 C10         31.9510    30.7120     1.2320 c          1 9LG       0.637700
      6 C15         29.9840    32.0650    -4.4610 c6         1 9LG       0.205800
      7 C17         29.5610    32.3300    -2.9890 c6         1 9LG       0.004900
      8 C21         33.0390    30.3920    -7.0000 ca         1 9LG       0.006000
      9 C22         32.4700    27.6750    -1.4200 ca         1 9LG      -0.121300
     10 C24         32.8310    33.0410    -7.9050 ca         1 9LG      -0.171000
     11 C26         33.0640    26.7190    -2.2680 ca         1 9LG      -0.097000
     12 C28         33.9040    32.5280     3.8660 ca         1 9LG      -0.102500
     13 C16         31.6920    32.3740    -7.4280 ca         1 9LG       0.259000
     14 C30         34.0750    32.3900    -7.9320 ca         1 9LG      -0.032000
     15 C29         34.1760    31.0660    -7.4790 ca         1 9LG      -0.147000
     16 N5          30.2850    30.6230    -4.7100 n3         1 9LG      -0.741500
     17 O18         32.7760    29.9060     1.6360 o          1 9LG      -0.611100
     18 N14         31.3040    31.5740     2.0860 ns         1 9LG      -0.499900
     19 C19         31.5390    31.6600     3.5270 c3         1 9LG       0.154300
     20 C23         32.5170    32.7770     3.8620 ca         1 9LG      -0.102300
     21 C27         32.0450    34.0700     4.1630 ca         1 9LG      -0.102500
     22 C33         32.9500    35.1010     4.4690 ca         1 9LG      -0.106500
     23 C35         34.3320    34.8470     4.4740 ca         1 9LG      -0.110000
     24 C34         34.8080    33.5600     4.1710 ca         1 9LG      -0.106500
     25 N2          32.0000    30.1540    -1.3340 na         1 9LG       0.066000
     26 C25         31.3660    27.3000    -0.6260 ca         1 9LG      -0.097000
     27 C31         30.8610    25.9890    -0.6860 ca         1 9LG      -0.104000
     28 C36         31.4550    25.0440    -1.5380 ca         1 9LG      -0.098000
     29 C32         32.5570    25.4090    -2.3280 ca         1 9LG      -0.104000
     30 C3          31.3130    30.6040    -2.4640 cc         1 9LG      -0.147300
     31 C9          31.4440    30.1480    -3.8990 c6         1 9LG       0.268100
     32 H1          30.0450    32.4690    -0.0710 ha         1 9LG       0.130000
     33 H2          33.6560    29.2720    -2.2540 h1         1 9LG       0.086200
     34 H3          33.6920    29.1960    -0.5030 h1         1 9LG       0.086200
     35 H4          30.8680    32.6790    -4.6890 h1         1 9LG       0.060200
     36 H5          29.1710    32.4220    -5.1100 h1         1 9LG       0.060200
     37 H6          29.5690    33.4090    -2.7850 hc         1 9LG       0.058700
     38 H7          28.5280    31.9880    -2.8430 hc         1 9LG       0.058700
     39 H8          33.1410    29.3640    -6.6550 ha         1 9LG       0.143000
     40 H9          32.7470    34.0660    -8.2540 ha         1 9LG       0.138000
     41 H10         33.9180    26.9890    -2.8850 ha         1 9LG       0.115000
     42 H11         34.2800    31.5350     3.6300 ha         1 9LG       0.110500
     43 H12         34.9570    32.9100    -8.3020 ha         1 9LG       0.123000
     44 H13         35.1370    30.5580    -7.5000 ha         1 9LG       0.126000
     45 H14         30.6430    32.2130     1.6670 hn         1 9LG       0.320500
     46 H15         30.5800    31.8460     4.0270 h1         1 9LG       0.063700
     47 H16         31.9230    30.7020     3.9010 h1         1 9LG       0.063700
     48 H17         30.9770    34.2760     4.1600 ha         1 9LG       0.110500
     49 H18         32.5800    36.0970     4.7020 ha         1 9LG       0.112500
     50 H19         35.0320    35.6450     4.7100 ha         1 9LG       0.112000
     51 H20         35.8780    33.3620     4.1730 ha         1 9LG       0.112500
     52 H21         30.8970    28.0190     0.0420 ha         1 9LG       0.115000
     53 H22         30.0080    25.7070    -0.0720 ha         1 9LG       0.115500
     54 H23         31.0630    24.0300    -1.5840 ha         1 9LG       0.116000
     55 H24         33.0190    24.6770    -2.9870 ha         1 9LG       0.115500
     56 H25         31.5110    29.0500    -3.9300 h1         1 9LG       0.068700
     57 H26         32.3880    30.5370    -4.3080 h1         1 9LG       0.068700
     58 C13         33.0310    29.0970    -1.3700 c3         1 9LG       0.103900
     59 S1          30.3500    30.1610    -6.3480 sy         1 9LG       1.202600
     60 F20         30.5190    33.0450    -7.4150 f          1 9LG      -0.163000
     61 O11         30.6310    28.7210    -6.3450 o          1 9LG      -0.535000
     62 O12         29.1210    30.6700    -6.9670 o          1 9LG      -0.535000
@<TRIPOS>BOND
     1     1     4 2   
     2     1     5 1   
     3     1    25 1   
     4     2     8 ar  
     5     2    13 ar  
     6     2    59 1   
     7     3     4 1   
     8     3     7 1   
     9     3    30 2   
    10     4    32 1   
    11     5    17 2   
    12     5    18 1   
    13     6     7 1   
    14     6    16 1   
    15     6    35 1   
    16     6    36 1   
    17     7    37 1   
    18     7    38 1   
    19     8    15 ar  
    20     8    39 1   
    21     9    11 ar  
    22     9    26 ar  
    23     9    58 1   
    24    10    13 ar  
    25    10    14 ar  
    26    10    40 1   
    27    11    29 ar  
    28    11    41 1   
    29    12    20 ar  
    30    12    24 ar  
    31    12    42 1   
    32    13    60 1   
    33    14    15 ar  
    34    14    43 1   
    35    15    44 1   
    36    16    31 1   
    37    16    59 1   
    38    18    19 1   
    39    18    45 1   
    40    19    20 1   
    41    19    46 1   
    42    19    47 1   
    43    20    21 ar  
    44    21    22 ar  
    45    21    48 1   
    46    22    23 ar  
    47    22    49 1   
    48    23    24 ar  
    49    23    50 1   
    50    24    51 1   
    51    25    30 1   
    52    25    58 1   
    53    26    27 ar  
    54    26    52 1   
    55    27    28 ar  
    56    27    53 1   
    57    28    29 ar  
    58    28    54 1   
    59    29    55 1   
    60    30    31 1   
    61    31    56 1   
    62    31    57 1   
    63    33    58 1   
    64    34    58 1   
    65    59    61 2   
    66    59    62 2   
@<TRIPOS>SUBSTRUCTURE
     1 9LG         1 TEMP              0 ****  ****    0 ROOT
