@<TRIPOS>MOLECULE
9LH
  120   123     1     0     0
SMALL
bcc


@<TRIPOS>ATOM
      1 C2          -3.2150    -1.8180    -0.3560 c6         1 9LH       0.180100
      2 C1          -4.5830    -1.6760     0.3010 c3         1 9LH      -0.110400
      3 O2          -0.2460    -0.5290     1.0700 os         1 9LH      -0.412600
      4 O3          -1.0590     1.6310     0.7570 os         1 9LH      -0.413600
      5 N            2.1100     0.3860     2.1230 ns         1 9LH      -0.564900
      6 C3          -0.9920    -1.1600     0.0890 c6         1 9LH       0.349900
      7 C4           0.0660     0.8230     0.8560 c6         1 9LH       0.331900
      8 C5          -1.8740     1.7210     1.9190 c6         1 9LH       0.115100
      9 C6          -3.0250     2.6450     1.5850 c3         1 9LH       0.147400
     10 C37         -8.6520     2.6240    -0.1390 c          1 9LH       0.836500
     11 N3          -8.1950     3.8530    -0.5370 ns         1 9LH      -0.606500
     12 C36         -7.0360     4.1530    -1.2350 c          1 9LH       0.729700
     13 O14         -6.7630     5.3030    -1.5200 o          1 9LH      -0.598500
     14 C35         -6.2430     2.9900    -1.5550 cc         1 9LH      -0.347200
     15 C34         -6.6750     1.7740    -1.1830 cd         1 9LH       0.059600
     16 N2          -7.8380     1.5650    -0.5000 n          1 9LH      -0.380000
     17 C31         -8.2300     0.2120    -0.1390 c5         1 9LH       0.311500
     18 O11         -7.1680    -0.4150     0.5240 os         1 9LH      -0.406600
     19 C32         -8.5480    -0.6850    -1.3300 c5         1 9LH       0.055100
     20 O12         -9.8460    -0.4360    -1.7790 oh         1 9LH      -0.570800
     21 C33         -8.3220    -2.0650    -0.7090 c5         1 9LH       0.094100
     22 O13         -9.3980    -2.4180     0.1250 oh         1 9LH      -0.583800
     23 C30         -7.0980    -1.8010     0.1640 c5         1 9LH       0.116100
     24 C           -5.7710    -2.1200    -0.5420 c3         1 9LH       0.142100
     25 O           -5.7620    -3.4990    -0.8400 oh         1 9LH      -0.608800
     26 C29         -2.7930    -3.2400    -0.7120 c6         1 9LH       0.082100
     27 O10         -2.9880    -4.0640     0.4110 oh         1 9LH      -0.583800
     28 C28         -1.3300    -3.2640    -1.1690 c6         1 9LH       0.094100
     29 O9          -0.8730    -4.5870    -1.3170 oh         1 9LH      -0.584800
     30 C12         -0.4190    -2.5550    -0.1710 c6         1 9LH       0.082700
     31 C9           0.9720     1.2580     2.0070 c6         1 9LH       0.098700
     32 C10          3.3800     0.8240     2.2160 c          1 9LH       0.677100
     33 O7           3.6910     2.0060     2.1600 o          1 9LH      -0.611100
     34 C11          4.4180    -0.2560     2.3850 c3         1 9LH      -0.182100
     35 C8           0.1750     1.3470     3.3070 c6         1 9LH       0.134100
     36 O6           1.0270     1.8560     4.2990 oh         1 9LH      -0.580800
     37 C7          -1.0420     2.2410     3.0940 c6         1 9LH       0.079100
     38 O5          -1.7810     2.2360     4.2960 oh         1 9LH      -0.596800
     39 O4          -3.7950     2.0690     0.5560 oh         1 9LH      -0.593800
     40 O1          -2.2970    -1.2640     0.5690 os         1 9LH      -0.407600
     41 N1           0.9230    -2.4850    -0.6870 ns         1 9LH      -0.559900
     42 C13          2.0390    -2.6860     0.0390 c          1 9LH       0.682300
     43 O8           2.0270    -2.8820     1.2510 o          1 9LH      -0.610100
     44 C14          3.2830    -2.6710    -0.7660 ce         1 9LH      -0.262200
     45 C15          4.4770    -2.9040    -0.2270 c2         1 9LH      -0.076200
     46 C16          5.7640    -2.9140    -0.9770 c3         1 9LH      -0.059200
     47 C17          6.6620    -1.7360    -0.5880 c3         1 9LH      -0.072400
     48 C18          8.0450    -1.8190    -1.2200 c3         1 9LH      -0.074400
     49 C19          8.9090    -0.6010    -0.9200 c3         1 9LH      -0.075400
     50 C20         10.3310    -0.7260    -1.4500 c3         1 9LH      -0.073400
     51 C21         11.1840     0.5060    -1.1790 c3         1 9LH      -0.074400
     52 C22         12.6270     0.3540    -1.6430 c3         1 9LH      -0.074400
     53 C23         13.4840     1.5840    -1.3700 c3         1 9LH      -0.074400
     54 C24         14.9300     1.4030    -1.8140 c3         1 9LH      -0.072400
     55 C25         15.8260     2.6300    -1.6290 c3         1 9LH      -0.059700
     56 C27         15.9760     3.0210    -0.1620 c3         1 9LH      -0.087100
     57 C26         17.1960     2.3810    -2.2520 c3         1 9LH      -0.087100
     58 H1          -3.2040    -1.2280    -1.2870 h1         1 9LH       0.035700
     59 H2          -4.5930    -2.2190     1.2520 hc         1 9LH       0.088200
     60 H3          -4.7010    -0.6180     0.5450 hc         1 9LH       0.088200
     61 H4           1.9390    -0.6080     2.1730 hn         1 9LH       0.342500
     62 H5          -0.9740    -0.5840    -0.8530 h2         1 9LH       0.024700
     63 H6           0.5940     0.9380    -0.0980 h2         1 9LH       0.077700
     64 H7          -2.2820     0.7360     2.1770 h1         1 9LH       0.089700
     65 H8          -3.6200     2.7920     2.4940 h1         1 9LH       0.027200
     66 H9          -2.6280     3.6280     1.2950 h1         1 9LH       0.027200
     67 H11         -5.3220     3.1030    -2.1060 ha         1 9LH       0.176000
     68 H12         -6.0950     0.8920    -1.4140 h4         1 9LH       0.159000
     69 H14         -7.8070    -0.5280    -2.1260 h1         1 9LH       0.048700
     70 H15         -9.9390    -0.7810    -2.6720 ho         1 9LH       0.418000
     71 H16         -8.1320    -2.8320    -1.4680 h1         1 9LH       0.075700
     72 H17        -10.2150    -2.2660    -0.3640 ho         1 9LH       0.424000
     73 H18         -7.1470    -2.4010     1.0800 h1         1 9LH       0.097700
     74 H19         -5.7450    -1.5980    -1.5070 h1         1 9LH       0.054700
     75 H20         -5.3890    -3.9760    -0.0900 ho         1 9LH       0.428000
     76 H21         -3.3990    -3.5760    -1.5640 h1         1 9LH       0.045700
     77 H22         -2.5800    -4.9160     0.2230 ho         1 9LH       0.420000
     78 H23         -1.2800    -2.7220    -2.1260 h1         1 9LH       0.030700
     79 H24         -1.2500    -4.9540    -2.1240 ho         1 9LH       0.408000
     80 H25         -0.4030    -3.1070     0.7720 h1         1 9LH       0.125700
     81 H26          1.3440     2.2550     1.7610 h1         1 9LH       0.103700
     82 H27          5.1300    -0.2030     1.5630 hc         1 9LH       0.061033
     83 H28          4.9730    -0.0820     3.3070 hc         1 9LH       0.061033
     84 H29          4.0020    -1.2600     2.4160 hc         1 9LH       0.061033
     85 H30         -0.1810     0.3410     3.5790 h1         1 9LH       0.063700
     86 H31          0.5270     1.8990     5.1200 ho         1 9LH       0.416000
     87 H32         -0.6820     3.2530     2.8560 h1         1 9LH       0.052700
     88 H33         -2.2290     3.0810     4.3950 ho         1 9LH       0.410000
     89 H34         -4.5550     2.6360     0.4000 ho         1 9LH       0.405000
     90 H35          1.0300    -2.3380    -1.6790 hn         1 9LH       0.307500
     91 H36          3.1940    -2.4870    -1.8330 ha         1 9LH       0.125000
     92 H37          4.5420    -3.0900     0.8420 ha         1 9LH       0.141000
     93 H38          6.2910    -3.8470    -0.7550 hc         1 9LH       0.051700
     94 H39          5.5800    -2.8970    -2.0540 hc         1 9LH       0.051700
     95 H40          6.1730    -0.8030    -0.8850 hc         1 9LH       0.044200
     96 H41          6.7680    -1.6980     0.5010 hc         1 9LH       0.044200
     97 H42          8.5490    -2.7220    -0.8590 hc         1 9LH       0.038200
     98 H43          7.9470    -1.9390    -2.3050 hc         1 9LH       0.038200
     99 H44          8.4360     0.2910    -1.3470 hc         1 9LH       0.040700
    100 H45          8.9410    -0.4360     0.1620 hc         1 9LH       0.040700
    101 H46         10.8080    -1.6030    -0.9970 hc         1 9LH       0.036700
    102 H47         10.3050    -0.9210    -2.5280 hc         1 9LH       0.036700
    103 H48         10.7330     1.3760    -1.6690 hc         1 9LH       0.038700
    104 H49         11.1710     0.7260    -0.1050 hc         1 9LH       0.038700
    105 H50         13.0750    -0.5140    -1.1460 hc         1 9LH       0.036200
    106 H51         12.6450     0.1290    -2.7150 hc         1 9LH       0.036200
    107 H52         13.0510     2.4500    -1.8840 hc         1 9LH       0.038700
    108 H53         13.4420     1.8160    -0.3010 hc         1 9LH       0.038700
    109 H54         15.3720     0.5550    -1.2760 hc         1 9LH       0.036200
    110 H55         14.9380     1.1220    -2.8730 hc         1 9LH       0.036200
    111 H56         15.3590     3.4680    -2.1600 hc         1 9LH       0.043700
    112 H57         15.0270     3.3050     0.2930 hc         1 9LH       0.031533
    113 H58         16.3860     2.1910     0.4190 hc         1 9LH       0.031533
    114 H59         16.6560     3.8680    -0.0500 hc         1 9LH       0.031533
    115 H60         17.1130     2.1310    -3.3120 hc         1 9LH       0.031533
    116 H61         17.8390     3.2580    -2.1660 hc         1 9LH       0.031533
    117 H62         17.7030     1.5490    -1.7560 hc         1 9LH       0.031533
    118 H13         -9.1050     0.3030     0.5070 h2         1 9LH       0.127700
    119 H10         -8.7910     4.6340    -0.2850 hn         1 9LH       0.344500
    120 O15         -9.6870     2.4900     0.4760 o          1 9LH      -0.613500
@<TRIPOS>BOND
     1     1     2 1   
     2     1    26 1   
     3     1    40 1   
     4     1    58 1   
     5     2    24 1   
     6     2    59 1   
     7     2    60 1   
     8     3     6 1   
     9     3     7 1   
    10     4     7 1   
    11     4     8 1   
    12     5    31 1   
    13     5    32 1   
    14     5    61 1   
    15     6    30 1   
    16     6    40 1   
    17     6    62 1   
    18     7    31 1   
    19     7    63 1   
    20     8     9 1   
    21     8    37 1   
    22     8    64 1   
    23     9    39 1   
    24     9    65 1   
    25     9    66 1   
    26    10    11 1   
    27    10    16 1   
    28    10   120 2   
    29    11    12 1   
    30    11   119 1   
    31    12    13 2   
    32    12    14 1   
    33    14    15 2   
    34    14    67 1   
    35    15    16 1   
    36    15    68 1   
    37    16    17 1   
    38    17    18 1   
    39    17    19 1   
    40    17   118 1   
    41    18    23 1   
    42    19    20 1   
    43    19    21 1   
    44    19    69 1   
    45    20    70 1   
    46    21    22 1   
    47    21    23 1   
    48    21    71 1   
    49    22    72 1   
    50    23    24 1   
    51    23    73 1   
    52    24    25 1   
    53    24    74 1   
    54    25    75 1   
    55    26    27 1   
    56    26    28 1   
    57    26    76 1   
    58    27    77 1   
    59    28    29 1   
    60    28    30 1   
    61    28    78 1   
    62    29    79 1   
    63    30    41 1   
    64    30    80 1   
    65    31    35 1   
    66    31    81 1   
    67    32    33 2   
    68    32    34 1   
    69    34    82 1   
    70    34    83 1   
    71    34    84 1   
    72    35    36 1   
    73    35    37 1   
    74    35    85 1   
    75    36    86 1   
    76    37    38 1   
    77    37    87 1   
    78    38    88 1   
    79    39    89 1   
    80    41    42 1   
    81    41    90 1   
    82    42    43 2   
    83    42    44 1   
    84    44    45 2   
    85    44    91 1   
    86    45    46 1   
    87    45    92 1   
    88    46    47 1   
    89    46    93 1   
    90    46    94 1   
    91    47    48 1   
    92    47    95 1   
    93    47    96 1   
    94    48    49 1   
    95    48    97 1   
    96    48    98 1   
    97    49    50 1   
    98    49    99 1   
    99    49   100 1   
   100    50    51 1   
   101    50   101 1   
   102    50   102 1   
   103    51    52 1   
   104    51   103 1   
   105    51   104 1   
   106    52    53 1   
   107    52   105 1   
   108    52   106 1   
   109    53    54 1   
   110    53   107 1   
   111    53   108 1   
   112    54    55 1   
   113    54   109 1   
   114    54   110 1   
   115    55    56 1   
   116    55    57 1   
   117    55   111 1   
   118    56   112 1   
   119    56   113 1   
   120    56   114 1   
   121    57   115 1   
   122    57   116 1   
   123    57   117 1   
@<TRIPOS>SUBSTRUCTURE
     1 9LH         1 TEMP              0 ****  ****    0 ROOT
