@<TRIPOS>MOLECULE
9LH
  120   123     1     0     0
SMALL
No Charge or Current Charge


@<TRIPOS>ATOM
      1 C2          -3.3490    -1.4980    -0.0500 c6         1 9LH       0.203300
      2 C1          -4.7430    -1.4860     0.6490 c3         1 9LH      -0.110400
      3 O2          -0.2350    -0.6850     1.6360 os         1 9LH      -0.459000
      4 O3          -0.2310     1.6170     1.1490 os         1 9LH      -0.460000
      5 N            2.4730    -0.4440     2.7900 ns         1 9LH      -0.497900
      6 C3          -1.0440    -1.1090     0.5290 c6         1 9LH       0.396300
      7 C4           0.6010     0.4560     1.3660 c6         1 9LH       0.378300
      8 C5          -1.0710     1.9950     2.2750 c6         1 9LH       0.138300
      9 C6          -1.9660     3.1990     1.8300 c3         1 9LH       0.170600
     10 C37         -9.0580     2.4580    -1.6290 c          1 9LH       0.627000
     11 N3          -8.6570     3.5220    -2.3760 ns         1 9LH      -0.472500
     12 C36         -7.4300     3.7640    -2.9020 c          1 9LH       0.587200
     13 O14         -7.1870     4.7590    -3.5590 o          1 9LH      -0.523000
     14 C35         -6.4520     2.7240    -2.5970 cc         1 9LH      -0.397200
     15 C34         -6.7770     1.6160    -1.8480 cd         1 9LH       0.009600
     16 N2          -8.0800     1.4770    -1.3710 n          1 9LH      -0.313000
     17 C31         -8.4710     0.2940    -0.5590 c5         1 9LH       0.334700
     18 O11         -7.4040    -0.1070     0.3290 os         1 9LH      -0.453000
     19 C32         -8.6700    -0.9160    -1.5330 c5         1 9LH       0.078300
     20 O12         -9.9450    -0.9520    -2.2090 oh         1 9LH      -0.693000
     21 C33         -8.5560    -2.0640    -0.4930 c5         1 9LH       0.117300
     22 O13         -9.7730    -2.1600     0.2620 oh         1 9LH      -0.706000
     23 C30         -7.3340    -1.5630     0.3610 c5         1 9LH       0.139300
     24 C           -5.9400    -2.0160    -0.1820 c3         1 9LH       0.165300
     25 O           -5.8760    -3.4520    -0.1940 oh         1 9LH      -0.731000
     26 C29         -3.0000    -2.8310    -0.8020 c6         1 9LH       0.105300
     27 O10         -3.2350    -3.9970     0.0110 oh         1 9LH      -0.706000
     28 C28         -1.5080    -2.8230    -1.2580 c6         1 9LH       0.117300
     29 O9          -1.1700    -4.1130    -1.8030 oh         1 9LH      -0.647000
     30 C12         -0.5470    -2.4510    -0.0860 c6         1 9LH       0.082700
     31 C9           1.5840     0.7200     2.5480 c6         1 9LH       0.098700
     32 C10          3.7740    -0.3790     3.2260 c          1 9LH       0.610100
     33 O7           4.3680     0.6780     3.3760 o          1 9LH      -0.611100
     34 C11          4.4310    -1.7250     3.4950 c3         1 9LH      -0.182100
     35 C8           0.7470     1.1050     3.8120 c6         1 9LH       0.157300
     36 O6           1.5780     1.4150     4.9430 oh         1 9LH      -0.643000
     37 C7          -0.1740     2.3240     3.5090 c6         1 9LH       0.102300
     38 O5          -0.9550     2.6470     4.6830 oh         1 9LH      -0.719000
     39 O4          -2.7470     2.9250     0.6500 oh         1 9LH      -0.716000
     40 O1          -2.3930    -1.2480     1.0000 os         1 9LH      -0.454000
     41 N1           0.8600    -2.3930    -0.5540 ns         1 9LH      -0.492900
     42 C13          1.9630    -2.6650     0.2140 c          1 9LH       0.615300
     43 O8           1.8850    -3.0040     1.3840 o          1 9LH      -0.610100
     44 C14          3.2490    -2.5910    -0.5230 ce         1 9LH      -0.312200
     45 C15          4.3700    -3.2480    -0.1460 c2         1 9LH      -0.126200
     46 C16          5.6890    -3.2230    -0.8870 c3         1 9LH      -0.059200
     47 C17          6.5570    -2.0160    -0.4730 c3         1 9LH      -0.072400
     48 C18          7.9150    -1.9650    -1.2060 c3         1 9LH      -0.074400
     49 C19          8.7800    -0.7550    -0.7900 c3         1 9LH      -0.075400
     50 C20         10.1380    -0.7030    -1.5220 c3         1 9LH      -0.073400
     51 C21         11.0030     0.5070    -1.1060 c3         1 9LH      -0.074400
     52 C22         12.3620     0.5590    -1.8380 c3         1 9LH      -0.074400
     53 C23         13.2270     1.7690    -1.4220 c3         1 9LH      -0.074400
     54 C24         14.5890     1.8160    -2.1550 c3         1 9LH      -0.072400
     55 C25         15.4510     3.0730    -1.8520 c3         1 9LH      -0.059700
     56 C27         15.8500     3.1870    -0.3610 c3         1 9LH      -0.087100
     57 C26         16.7030     3.1150    -2.7570 c3         1 9LH      -0.087100
     58 H1          -3.3140    -0.6640    -0.7680 h1         1 9LH       0.035700
     59 H2          -4.6940    -2.0490     1.5890 hc         1 9LH       0.088200
     60 H3          -4.9490    -0.4510     0.9440 hc         1 9LH       0.088200
     61 H4           2.0950    -1.3770     2.6370 hn         1 9LH       0.342500
     62 H5          -1.0280    -0.3350    -0.2530 h2         1 9LH       0.024700
     63 H6           1.1960     0.2650     0.4590 h2         1 9LH       0.077700
     64 H7          -1.7390     1.1570     2.5240 h1         1 9LH       0.089700
     65 H8          -2.6340     3.4590     2.6620 h1         1 9LH       0.027200
     66 H9          -1.3120     4.0640     1.6540 h1         1 9LH       0.027200
     67 H11         -5.4560     2.8820    -2.9950 ha         1 9LH       0.226000
     68 H12         -6.0900     0.8160    -1.5830 h4         1 9LH       0.209000
     69 H14         -7.8490    -0.9770    -2.2600 h1         1 9LH       0.048700
     70 H15         -9.9000    -0.3200    -2.9660 ho         1 9LH       0.517000
     71 H16         -8.3390    -3.0220    -0.9860 h1         1 9LH       0.075700
     72 H17        -10.4780    -1.9490    -0.4000 ho         1 9LH       0.523000
     73 H18         -7.4230    -1.9020     1.4020 h1         1 9LH       0.097700
     74 H19         -5.8400    -1.6300    -1.2060 h1         1 9LH       0.054700
     75 H20         -4.9120    -3.6970    -0.0780 ho         1 9LH       0.527000
     76 H21         -3.6220    -2.8850    -1.7080 h1         1 9LH       0.045700
     77 H22         -2.5570    -4.6500    -0.3010 ho         1 9LH       0.519000
     78 H23         -1.3980    -2.0550    -2.0390 h1         1 9LH       0.030700
     79 H24         -1.3260    -4.0720    -2.7740 ho         1 9LH       0.447000
     80 H25         -0.6270    -3.2220     0.6940 h1         1 9LH       0.125700
     81 H26          2.2080     1.5800     2.2690 h1         1 9LH       0.103700
     82 H27          4.4310    -2.3060     2.5680 hc         1 9LH       0.061033
     83 H28          5.4440    -1.6270     3.9000 hc         1 9LH       0.061033
     84 H29          3.7820    -2.3220     4.1460 hc         1 9LH       0.061033
     85 H30          0.1010     0.2500     4.0630 h1         1 9LH       0.063700
     86 H31          0.9800     1.9000     5.5570 ho         1 9LH       0.455000
     87 H32          0.4680     3.1780     3.2430 h1         1 9LH       0.052700
     88 H33         -1.2130     3.5970     4.6230 ho         1 9LH       0.509000
     89 H34         -3.2070     3.7620     0.4100 ho         1 9LH       0.504000
     90 H35          1.0330    -2.1950    -1.5320 hn         1 9LH       0.307500
     91 H36          3.2320    -2.0380    -1.4600 ha         1 9LH       0.175000
     92 H37          4.3790    -3.8560     0.7630 ha         1 9LH       0.191000
     93 H38          6.2420    -4.1500    -0.6900 hc         1 9LH       0.051700
     94 H39          5.5120    -3.1900    -1.9690 hc         1 9LH       0.051700
     95 H40          6.0020    -1.0910    -0.6740 hc         1 9LH       0.044200
     96 H41          6.7310    -2.0550     0.6100 hc         1 9LH       0.044200
     97 H42          8.4680    -2.8910    -1.0050 hc         1 9LH       0.038200
     98 H43          7.7390    -1.9260    -2.2890 hc         1 9LH       0.038200
     99 H44          8.2260     0.1700    -0.9910 hc         1 9LH       0.040700
    100 H45          8.9560    -0.7940     0.2930 hc         1 9LH       0.040700
    101 H46         10.6920    -1.6290    -1.3200 hc         1 9LH       0.036700
    102 H47          9.9630    -0.6650    -2.6050 hc         1 9LH       0.036700
    103 H48         10.4500     1.4320    -1.3080 hc         1 9LH       0.038700
    104 H49         11.1790     0.4680    -0.0230 hc         1 9LH       0.038700
    105 H50         12.9160    -0.3660    -1.6360 hc         1 9LH       0.036200
    106 H51         12.1860     0.5970    -2.9210 hc         1 9LH       0.036200
    107 H52         12.6740     2.6940    -1.6280 hc         1 9LH       0.038700
    108 H53         13.3920     1.7250    -0.3390 hc         1 9LH       0.038700
    109 H54         15.1630     0.9150    -1.9050 hc         1 9LH       0.036200
    110 H55         14.4000     1.7750    -3.2360 hc         1 9LH       0.036200
    111 H56         14.8480     3.9570    -2.0980 hc         1 9LH       0.043700
    112 H57         14.9680     3.3080     0.2790 hc         1 9LH       0.031533
    113 H58         16.3950     2.2930    -0.0330 hc         1 9LH       0.031533
    114 H59         16.4950     4.0590    -0.1990 hc         1 9LH       0.031533
    115 H60         16.4180     3.0950    -3.8160 hc         1 9LH       0.031533
    116 H61         17.2790     4.0310    -2.5810 hc         1 9LH       0.031533
    117 H62         17.3560     2.2560    -2.5610 hc         1 9LH       0.031533
    118 H13         -9.3830     0.5150     0.0120 h2         1 9LH       0.127700
    119 H10         -9.3610     4.2190    -2.5610 hn         1 9LH       0.344500
    120 O15        -10.2060     2.3830    -1.2260 o          1 9LH      -0.538000
@<TRIPOS>BOND
     1     1     2 1   
     2     1    26 1   
     3     1    40 1   
     4     1    58 1   
     5     2    24 1   
     6     2    59 1   
     7     2    60 1   
     8     3     6 1   
     9     3     7 1   
    10     4     7 1   
    11     4     8 1   
    12     5    31 1   
    13     5    32 1   
    14     5    61 1   
    15     6    30 1   
    16     6    40 1   
    17     6    62 1   
    18     7    31 1   
    19     7    63 1   
    20     8     9 1   
    21     8    37 1   
    22     8    64 1   
    23     9    39 1   
    24     9    65 1   
    25     9    66 1   
    26    10    11 1   
    27    10    16 1   
    28    10   120 2   
    29    11    12 1   
    30    11   119 1   
    31    12    13 2   
    32    12    14 1   
    33    14    15 2   
    34    14    67 1   
    35    15    16 1   
    36    15    68 1   
    37    16    17 1   
    38    17    18 1   
    39    17    19 1   
    40    17   118 1   
    41    18    23 1   
    42    19    20 1   
    43    19    21 1   
    44    19    69 1   
    45    20    70 1   
    46    21    22 1   
    47    21    23 1   
    48    21    71 1   
    49    22    72 1   
    50    23    24 1   
    51    23    73 1   
    52    24    25 1   
    53    24    74 1   
    54    25    75 1   
    55    26    27 1   
    56    26    28 1   
    57    26    76 1   
    58    27    77 1   
    59    28    29 1   
    60    28    30 1   
    61    28    78 1   
    62    29    79 1   
    63    30    41 1   
    64    30    80 1   
    65    31    35 1   
    66    31    81 1   
    67    32    33 2   
    68    32    34 1   
    69    34    82 1   
    70    34    83 1   
    71    34    84 1   
    72    35    36 1   
    73    35    37 1   
    74    35    85 1   
    75    36    86 1   
    76    37    38 1   
    77    37    87 1   
    78    38    88 1   
    79    39    89 1   
    80    41    42 1   
    81    41    90 1   
    82    42    43 2   
    83    42    44 1   
    84    44    45 2   
    85    44    91 1   
    86    45    46 1   
    87    45    92 1   
    88    46    47 1   
    89    46    93 1   
    90    46    94 1   
    91    47    48 1   
    92    47    95 1   
    93    47    96 1   
    94    48    49 1   
    95    48    97 1   
    96    48    98 1   
    97    49    50 1   
    98    49    99 1   
    99    49   100 1   
   100    50    51 1   
   101    50   101 1   
   102    50   102 1   
   103    51    52 1   
   104    51   103 1   
   105    51   104 1   
   106    52    53 1   
   107    52   105 1   
   108    52   106 1   
   109    53    54 1   
   110    53   107 1   
   111    53   108 1   
   112    54    55 1   
   113    54   109 1   
   114    54   110 1   
   115    55    56 1   
   116    55    57 1   
   117    55   111 1   
   118    56   112 1   
   119    56   113 1   
   120    56   114 1   
   121    57   115 1   
   122    57   116 1   
   123    57   117 1   
@<TRIPOS>SUBSTRUCTURE
     1 9LH         1 TEMP              0 ****  ****    0 ROOT
