@<TRIPOS>MOLECULE
9LI
   27    28     1     0     0
SMALL
No Charge or Current Charge


@<TRIPOS>ATOM
      1 C1          24.0960    14.3250    15.4660 c3         1 9LI      -0.040900
      2 Cl1         26.6690    12.6190    10.2890 cl         1 9LI      -0.197000
      3 C2          24.2410    14.4180    13.9710 cc         1 9LI      -0.051300
      4 Cl2         23.3400    16.3080     8.0140 cl         1 9LI      -0.209000
      5 C3          25.0820    13.7220    13.1060 cd         1 9LI      -0.115400
      6 C4          24.8520    14.1780    11.7380 ca         1 9LI      -0.083800
      7 C5          23.8750    15.1350    11.8340 ca         1 9LI      -0.032200
      8 N6          23.5000    15.2890    13.1540 na         1 9LI      -0.227700
      9 C8          23.3820    15.8130    10.7130 ca         1 9LI      -0.125000
     10 C9          23.9230    15.4860     9.4550 ca         1 9LI       0.148000
     11 C10         24.9300    14.5040     9.3430 ca         1 9LI      -0.129000
     12 C11         25.4100    13.8350    10.4870 ca         1 9LI       0.179000
     13 C14         26.0680    12.6670    13.5570 c3         1 9LI      -0.007200
     14 C15         27.4970    13.2300    13.7210 c3         1 9LI       0.149800
     15 N16         28.4550    12.2040    14.1870 n8         1 9LI      -1.001200
     16 H1          23.4340    15.1100    15.8520 hc         1 9LI       0.052033
     17 H1A         23.6740    13.3560    15.7560 hc         1 9LI       0.052033
     18 H1B         25.0690    14.4340    15.9590 hc         1 9LI       0.052033
     19 H8          22.6070    16.5700    10.8060 ha         1 9LI       0.133000
     20 H10         25.3390    14.2620     8.3660 ha         1 9LI       0.143000
     21 H14         25.7460    12.2430    14.5150 hc         1 9LI       0.054700
     22 H14A        26.0770    11.8250    12.8570 hc         1 9LI       0.054700
     23 H15         27.8490    13.6300    12.7600 h1         1 9LI       0.032700
     24 H15A        27.4820    14.0540    14.4480 h1         1 9LI       0.032700
     25 HN16        29.3730    12.6440    14.3300 hn         1 9LI       0.391000
     26 HN1A        28.1870    11.8990    15.1310 hn         1 9LI       0.391000
     27 HN6         22.7940    15.9380    13.4840 hn         1 9LI       0.353000
@<TRIPOS>BOND
     1     1     3 1   
     2     1    16 1   
     3     1    17 1   
     4     1    18 1   
     5     2    12 1   
     6     3     5 2   
     7     3     8 1   
     8     4    10 1   
     9     5     6 1   
    10     5    13 1   
    11     6     7 ar  
    12     6    12 ar  
    13     7     8 1   
    14     7     9 ar  
    15     8    27 1   
    16     9    10 ar  
    17     9    19 1   
    18    10    11 ar  
    19    11    12 ar  
    20    11    20 1   
    21    13    14 1   
    22    13    21 1   
    23    13    22 1   
    24    14    15 1   
    25    14    23 1   
    26    14    24 1   
    27    15    25 1   
    28    15    26 1   
@<TRIPOS>SUBSTRUCTURE
     1 9LI         1 TEMP              0 ****  ****    0 ROOT
