@<TRIPOS>MOLECULE
9LI
   27    28     1     0     0
SMALL
abcg2


@<TRIPOS>ATOM
      1 C1          24.0390    14.3010    15.3960 c3         1 9LI      -0.040900
      2 CL1         26.6830    12.6870    10.2730 cl         1 9LI      -0.197000
      3 C2          24.2390    14.3570    13.9230 cc         1 9LI      -0.051300
      4 CL2         23.3150    16.2600     8.0600 cl         1 9LI      -0.209000
      5 C3          25.1170    13.6690    13.1140 cd         1 9LI      -0.115400
      6 C4          24.8820    14.1310    11.7690 ca         1 9LI      -0.083800
      7 C5          23.8380    15.1020    11.8360 ca         1 9LI      -0.032200
      8 N6          23.4760    15.2090    13.1500 na         1 9LI      -0.227700
      9 C8          23.3330    15.7700    10.7260 ca         1 9LI      -0.125000
     10 C9          23.8990    15.4540     9.5050 ca         1 9LI       0.148000
     11 C10         24.9260    14.5140     9.3700 ca         1 9LI      -0.129000
     12 C11         25.4020    13.8640    10.4960 ca         1 9LI       0.179000
     13 C14         26.1420    12.6820    13.5840 c3         1 9LI      -0.007200
     14 C15         27.5280    13.3050    13.7670 c3         1 9LI       0.149800
     15 N16         28.5020    12.2860    14.1790 n8         1 9LI      -1.001200
     16 H1          24.3070    15.2520    15.8640 hc         1 9LI       0.052033
     17 H1A         22.9930    14.0990    15.6400 hc         1 9LI       0.052033
     18 H1B         24.6540    13.5210    15.8390 hc         1 9LI       0.052033
     19 H8          22.5400    16.5000    10.8120 ha         1 9LI       0.133000
     20 H10         25.3410    14.2960     8.3980 ha         1 9LI       0.143000
     21 H14         25.8240    12.2560    14.5390 hc         1 9LI       0.054700
     22 H14A        26.2230    11.8510    12.8830 hc         1 9LI       0.054700
     23 H15         27.8610    13.7290    12.8170 h1         1 9LI       0.032700
     24 H15A        27.4460    14.1360    14.4800 h1         1 9LI       0.032700
     25 HN16        29.4210    12.7070    14.2710 hn         1 9LI       0.391000
     26 HN1A        28.2600    11.9400    15.1030 hn         1 9LI       0.391000
     27 HN6         22.7580    15.8220    13.5050 hn         1 9LI       0.353000
@<TRIPOS>BOND
     1     1     3 1   
     2     1    16 1   
     3     1    17 1   
     4     1    18 1   
     5     2    12 1   
     6     3     5 2   
     7     3     8 1   
     8     4    10 1   
     9     5     6 1   
    10     5    13 1   
    11     6     7 ar  
    12     6    12 ar  
    13     7     8 1   
    14     7     9 ar  
    15     8    27 1   
    16     9    10 ar  
    17     9    19 1   
    18    10    11 ar  
    19    11    12 ar  
    20    11    20 1   
    21    13    14 1   
    22    13    21 1   
    23    13    22 1   
    24    14    15 1   
    25    14    23 1   
    26    14    24 1   
    27    15    25 1   
    28    15    26 1   
@<TRIPOS>SUBSTRUCTURE
     1 9LI         1 TEMP              0 ****  ****    0 ROOT
