@<TRIPOS>MOLECULE
9LJ
   59    63     1     0     0
SMALL
No Charge or Current Charge


@<TRIPOS>ATOM
      1 C4           3.1260     2.8050     1.6550 ca         1 9LJ      -0.070000
      2 C7           2.1710     2.1650     0.8530 ca         1 9LJ       0.072400
      3 C8           2.2020     0.8100     0.6530 ca         1 9LJ      -0.064200
      4 C10          0.4870     1.7370    -0.4240 cc         1 9LJ       0.468400
      5 C13         -0.9750     1.2700    -2.4160 ca         1 9LJ      -0.079000
      6 C15         -3.1870     2.2690    -2.5840 ca         1 9LJ       0.144000
      7 C17         -1.7820     2.7390    -0.6550 ca         1 9LJ      -0.079000
      8 C20          1.6030    -1.8350    -1.2130 c6         1 9LJ      -0.061700
      9 C21          0.0300    -1.4720     0.8590 c          1 9LJ       0.596100
     10 C24          0.8350    -3.0820    -1.7440 c6         1 9LJ      -0.073900
     11 C26          2.5240    -3.3500    -3.6430 c6         1 9LJ      -0.077400
     12 C28          2.3500    -1.1320    -2.3870 c6         1 9LJ      -0.073900
     13 C1           4.1260     2.0180     2.2590 ca         1 9LJ       0.115000
     14 C2           4.1490     0.6160     2.0620 ca         1 9LJ       0.148000
     15 C3           3.1780    -0.0070     1.2540 ca         1 9LJ      -0.119000
     16 N11          1.1010     2.7600     0.2010 nd         1 9LJ      -0.546100
     17 N9           1.1410     0.5160    -0.1680 na         1 9LJ      -0.174600
     18 C19          0.6420    -0.8660    -0.4270 c3         1 9LJ       0.013300
     19 C25          1.7780    -4.0600    -2.4890 c6         1 9LJ      -0.072900
     20 C27          3.2940    -2.1110    -3.1280 c6         1 9LJ      -0.072900
     21 N22         -1.3280    -1.2140     0.9990 ns         1 9LJ      -0.147000
     22 C29         -2.2720    -1.5380     2.0180 ca         1 9LJ       0.020000
     23 C30         -3.6500    -1.3030     1.7770 ca         1 9LJ      -0.079000
     24 C31         -4.6040    -1.6050     2.7690 ca         1 9LJ      -0.043000
     25 C32         -4.2000    -2.1350     4.0030 ca         1 9LJ      -0.138000
     26 C33         -2.8390    -2.3620     4.2550 ca         1 9LJ      -0.059000
     27 C34         -1.8810    -2.0640     3.2710 ca         1 9LJ      -0.135000
     28 C35         -4.1100    -0.7610     0.5240 cg         1 9LJ       0.319000
     29 N36         -4.4700    -0.3280    -0.4970 n1         1 9LJ      -0.456000
     30 C12         -0.7760     1.8860    -1.1600 ca         1 9LJ      -0.134900
     31 C14         -2.1800     1.4520    -3.1170 ca         1 9LJ      -0.107000
     32 C16         -2.9860     2.9190    -1.3570 ca         1 9LJ      -0.107000
     33 F6           5.1030    -0.1390     2.6540 f          1 9LJ      -0.159000
     34 F5           5.0590     2.6120     3.0390 f          1 9LJ      -0.162000
     35 H1           3.0940     3.8790     1.8100 ha         1 9LJ       0.152000
     36 H2          -0.1940     0.6610    -2.8610 ha         1 9LJ       0.130500
     37 H3          -1.6380     3.2520     0.2950 ha         1 9LJ       0.130500
     38 H4           2.3590    -2.1950    -0.5050 hc         1 9LJ       0.077700
     39 H5           0.3510    -3.6160    -0.9150 hc         1 9LJ       0.044450
     40 H6           0.0290    -2.7660    -2.4220 hc         1 9LJ       0.044450
     41 H7           3.2210    -4.0500    -4.1240 hc         1 9LJ       0.042200
     42 H8           1.8050    -3.0440    -4.4160 hc         1 9LJ       0.042200
     43 H9           1.6270    -0.7200    -3.1020 hc         1 9LJ       0.044450
     44 H10          2.9420    -0.2850    -2.0160 hc         1 9LJ       0.044450
     45 H11          3.1990    -1.0820     1.1270 ha         1 9LJ       0.152000
     46 H12         -0.2140    -0.7550    -1.0980 h1         1 9LJ       0.079700
     47 H13          2.5060    -4.4830    -1.7820 hc         1 9LJ       0.045200
     48 H14          1.2000    -4.9060    -2.8840 hc         1 9LJ       0.045200
     49 H15          4.1010    -2.4300    -2.4530 hc         1 9LJ       0.045200
     50 H16          3.7780    -1.5970    -3.9690 hc         1 9LJ       0.045200
     51 H17         -1.7250    -0.6780     0.2380 hn         1 9LJ       0.164000
     52 H18         -5.6630    -1.4300     2.5840 ha         1 9LJ       0.127000
     53 H19         -4.9400    -2.3660     4.7660 ha         1 9LJ       0.125000
     54 H20         -2.5250    -2.7670     5.2150 ha         1 9LJ       0.123000
     55 H21         -0.8370    -2.2410     3.5110 ha         1 9LJ       0.150000
     56 H22         -2.3290     0.9670    -4.0790 ha         1 9LJ       0.137000
     57 H23         -3.7620     3.5640    -0.9530 ha         1 9LJ       0.137000
     58 O23          0.6880    -2.1360     1.6520 o          1 9LJ      -0.548100
     59 Cl18        -4.6930     2.4980    -3.4650 cl         1 9LJ      -0.181000
@<TRIPOS>BOND
     1     1     2 ar  
     2     1    13 ar  
     3     1    35 1   
     4     2     3 ar  
     5     2    16 1   
     6     3    15 ar  
     7     3    17 1   
     8     4    16 2   
     9     4    17 1   
    10     4    30 1   
    11     5    30 ar  
    12     5    31 ar  
    13     5    36 1   
    14     6    31 ar  
    15     6    32 ar  
    16     6    59 1   
    17     7    30 ar  
    18     7    32 ar  
    19     7    37 1   
    20     8    10 1   
    21     8    12 1   
    22     8    18 1   
    23     8    38 1   
    24     9    18 1   
    25     9    21 1   
    26     9    58 2   
    27    10    19 1   
    28    10    39 1   
    29    10    40 1   
    30    11    19 1   
    31    11    20 1   
    32    11    41 1   
    33    11    42 1   
    34    12    20 1   
    35    12    43 1   
    36    12    44 1   
    37    13    14 ar  
    38    13    34 1   
    39    14    15 ar  
    40    14    33 1   
    41    15    45 1   
    42    17    18 1   
    43    18    46 1   
    44    19    47 1   
    45    19    48 1   
    46    20    49 1   
    47    20    50 1   
    48    21    22 1   
    49    21    51 1   
    50    22    23 ar  
    51    22    27 ar  
    52    23    24 ar  
    53    23    28 1   
    54    24    25 ar  
    55    24    52 1   
    56    25    26 ar  
    57    25    53 1   
    58    26    27 ar  
    59    26    54 1   
    60    27    55 1   
    61    28    29 3   
    62    31    56 1   
    63    32    57 1   
@<TRIPOS>SUBSTRUCTURE
     1 9LJ         1 TEMP              0 ****  ****    0 ROOT
