@<TRIPOS>MOLECULE
9LJ
   59    63     1     0     0
SMALL
bcc


@<TRIPOS>ATOM
      1 C4           3.1140     2.6710     1.6870 ca         1 9LJ      -0.088000
      2 C7           2.1410     2.0480     0.9050 ca         1 9LJ       0.072400
      3 C8           2.1780     0.6650     0.6790 ca         1 9LJ      -0.064200
      4 C10          0.4710     1.6150    -0.3340 cc         1 9LJ       0.468400
      5 C13         -0.8750     1.3760    -2.4320 ca         1 9LJ      -0.097000
      6 C15         -3.1740     2.0270    -2.4570 ca         1 9LJ       0.052400
      7 C17         -1.8940     2.2990    -0.4580 ca         1 9LJ      -0.097000
      8 C20          1.5790    -1.8250    -1.2040 c6         1 9LJ      -0.061700
      9 C21         -0.0750    -1.4910     0.7270 c          1 9LJ       0.663100
     10 C24          0.8230    -3.0170    -1.8020 c6         1 9LJ      -0.073900
     11 C26          2.5460    -3.2260    -3.6270 c6         1 9LJ      -0.077400
     12 C28          2.3660    -1.0930    -2.2900 c6         1 9LJ      -0.073900
     13 C1           4.0880     1.8710     2.2250 ca         1 9LJ       0.079900
     14 C2           4.1090     0.4900     2.0040 ca         1 9LJ       0.112900
     15 C3           3.1630    -0.1460     1.2360 ca         1 9LJ      -0.137000
     16 N11          1.0640     2.6040     0.2680 nd         1 9LJ      -0.546100
     17 N9           1.1010     0.4080    -0.1420 na         1 9LJ      -0.145300
     18 C19          0.5740    -0.8940    -0.5270 c3         1 9LJ      -0.016000
     19 C25          1.7600    -3.9610    -2.5490 c6         1 9LJ      -0.072900
     20 C27          3.2980    -2.0380    -3.0400 c6         1 9LJ      -0.072900
     21 N22         -1.3850    -1.1370     0.8580 ns         1 9LJ      -0.473100
     22 C29         -2.2480    -1.3800     1.9240 ca         1 9LJ       0.112600
     23 C30         -3.6310    -1.2570     1.6950 ca         1 9LJ      -0.079000
     24 C31         -4.5490    -1.4420     2.7280 ca         1 9LJ      -0.061000
     25 C32         -4.1050    -1.7610     3.9960 ca         1 9LJ      -0.156000
     26 C33         -2.7410    -1.8890     4.2230 ca         1 9LJ      -0.077000
     27 C34         -1.8160    -1.7020     3.2080 ca         1 9LJ      -0.153000
     28 C35         -4.1110    -0.9440     0.3910 cg         1 9LJ       0.229800
     29 N36         -4.4800    -0.6910    -0.6720 n1         1 9LJ      -0.366800
     30 C12         -0.7790     1.7570    -1.0950 ca         1 9LJ      -0.134900
     31 C14         -2.0720     1.5070    -3.1170 ca         1 9LJ      -0.125000
     32 C16         -3.0950     2.4330    -1.1340 ca         1 9LJ      -0.125000
     33 F6           5.0890    -0.2220     2.5720 f          1 9LJ      -0.123900
     34 F5           5.0540     2.4000     2.9870 f          1 9LJ      -0.126900
     35 H1           3.1020     3.7380     1.8670 ha         1 9LJ       0.170000
     36 H2          -0.0100     0.9880    -2.9560 ha         1 9LJ       0.148500
     37 H3          -1.8280     2.6060     0.5770 ha         1 9LJ       0.148500
     38 H4           2.2810    -2.2250    -0.4680 hc         1 9LJ       0.077700
     39 H5           0.2930    -3.5680    -1.0210 hc         1 9LJ       0.044450
     40 H6           0.0570    -2.6440    -2.4930 hc         1 9LJ       0.044450
     41 H7           3.2430    -3.9090    -4.1200 hc         1 9LJ       0.042200
     42 H8           1.8570    -2.8730    -4.4020 hc         1 9LJ       0.042200
     43 H9           1.6650    -0.6400    -3.0020 hc         1 9LJ       0.044450
     44 H10          2.9470    -0.2740    -1.8630 hc         1 9LJ       0.044450
     45 H11          3.2090    -1.2160     1.1060 ha         1 9LJ       0.170000
     46 H12         -0.2010    -0.6990    -1.2700 h1         1 9LJ       0.079700
     47 H13          2.4540    -4.4200    -1.8380 hc         1 9LJ       0.045200
     48 H14          1.1810    -4.7770    -2.9870 hc         1 9LJ       0.045200
     49 H15          4.0740    -2.3980    -2.3570 hc         1 9LJ       0.045200
     50 H16          3.8150    -1.4880    -3.8290 hc         1 9LJ       0.045200
     51 H17         -1.7930    -0.6680     0.0630 hn         1 9LJ       0.330500
     52 H18         -5.6050    -1.3360     2.5220 ha         1 9LJ       0.145000
     53 H19         -4.8140    -1.9070     4.7990 ha         1 9LJ       0.143000
     54 H20         -2.3820    -2.1350     5.2130 ha         1 9LJ       0.141000
     55 H21         -0.7660    -1.7980     3.4280 ha         1 9LJ       0.168000
     56 H22         -2.1380     1.2090    -4.1540 ha         1 9LJ       0.155000
     57 H23         -3.9600     2.8400    -0.6300 ha         1 9LJ       0.155000
     58 O23          0.5480    -2.1470     1.5310 o          1 9LJ      -0.548100
     59 CL18        -4.6760     2.1680    -3.2980 cl         1 9LJ      -0.089400
@<TRIPOS>BOND
     1     1     2 ar  
     2     1    13 ar  
     3     1    35 1   
     4     2     3 ar  
     5     2    16 1   
     6     3    15 ar  
     7     3    17 1   
     8     4    16 2   
     9     4    17 1   
    10     4    30 1   
    11     5    30 ar  
    12     5    31 ar  
    13     5    36 1   
    14     6    31 ar  
    15     6    32 ar  
    16     6    59 1   
    17     7    30 ar  
    18     7    32 ar  
    19     7    37 1   
    20     8    10 1   
    21     8    12 1   
    22     8    18 1   
    23     8    38 1   
    24     9    18 1   
    25     9    21 1   
    26     9    58 2   
    27    10    19 1   
    28    10    39 1   
    29    10    40 1   
    30    11    19 1   
    31    11    20 1   
    32    11    41 1   
    33    11    42 1   
    34    12    20 1   
    35    12    43 1   
    36    12    44 1   
    37    13    14 ar  
    38    13    34 1   
    39    14    15 ar  
    40    14    33 1   
    41    15    45 1   
    42    17    18 1   
    43    18    46 1   
    44    19    47 1   
    45    19    48 1   
    46    20    49 1   
    47    20    50 1   
    48    21    22 1   
    49    21    51 1   
    50    22    23 ar  
    51    22    27 ar  
    52    23    24 ar  
    53    23    28 1   
    54    24    25 ar  
    55    24    52 1   
    56    25    26 ar  
    57    25    53 1   
    58    26    27 ar  
    59    26    54 1   
    60    27    55 1   
    61    28    29 3   
    62    31    56 1   
    63    32    57 1   
@<TRIPOS>SUBSTRUCTURE
     1 9LJ         1 TEMP              0 ****  ****    0 ROOT
