@<TRIPOS>MOLECULE
9LK
   38    40     1     0     0
SMALL
No Charge or Current Charge


@<TRIPOS>ATOM
      1 CAA          6.4150    -3.0990    -0.3740 c3         1 9LK      -0.125400
      2 CAB          6.6950     1.8670    -0.6080 c3         1 9LK      -0.129400
      3 CAE         -5.0190    -0.7200    -1.1250 ca         1 9LK      -0.096000
      4 CAF         -6.0970    -0.3590     1.0300 ca         1 9LK      -0.096000
      5 CAG          0.6930     1.9720     0.3930 ca         1 9LK      -0.048000
      6 CAH         -3.9340     0.0780    -0.7170 ca         1 9LK      -0.098500
      7 CAI         -5.0120     0.4390     1.4390 ca         1 9LK      -0.098500
      8 CAJ         -0.6720     2.2280     0.6050 ca         1 9LK      -0.159000
      9 CAK          0.1500    -0.3800     0.5290 ca         1 9LK       0.340900
     10 CAQ          3.6420     0.9630    -0.0760 c          1 9LK       0.554600
     11 CAR         -6.0970    -0.9400    -0.2500 ca         1 9LK       0.119000
     12 CAS          6.0740    -1.6420    -0.3740 cc         1 9LK       0.480300
     13 CAT          1.1210     0.6280     0.3500 ca         1 9LK      -0.118000
     14 CAU          6.1190     0.4850    -0.4610 cd         1 9LK       0.347300
     15 CAV         -3.9250     0.6480     0.5730 ca         1 9LK       0.115100
     16 CAW         -1.5650     1.1580     0.7600 ca         1 9LK       0.564300
     17 CAX          4.8260     0.0870    -0.2350 cc         1 9LK       0.007500
     18 NAL         -1.1620    -0.1310     0.7340 nb         1 9LK      -0.718000
     19 NAM          6.9170    -0.6380    -0.5490 nd         1 9LK      -0.697000
     20 NAN          2.4780     0.2340     0.1420 ns         1 9LK      -0.137000
     21 OAC          3.6830     2.1870    -0.1290 o          1 9LK      -0.573100
     22 OAO         -2.8890     1.4530     0.9900 os         1 9LK      -0.369400
     23 OAP          4.7770    -1.2750    -0.1760 os         1 9LK      -0.269000
     24 H1           6.1510    -3.5550     0.5860 hc         1 9LK       0.070033
     25 H2           5.8680    -3.6210    -1.1660 hc         1 9LK       0.070033
     26 H3           7.4870    -3.2510    -0.5420 hc         1 9LK       0.070033
     27 H4           6.5220     2.4590     0.2980 hc         1 9LK       0.064367
     28 H5           7.7770     1.8320    -0.7830 hc         1 9LK       0.064367
     29 H6           6.2360     2.3930    -1.4520 hc         1 9LK       0.064367
     30 H7          -5.0270    -1.1650    -2.1170 ha         1 9LK       0.131500
     31 H8          -6.9350    -0.5260     1.7020 ha         1 9LK       0.131500
     32 H9           1.3760     2.8070     0.2700 ha         1 9LK       0.146000
     33 H10         -3.1070     0.2530    -1.4010 ha         1 9LK       0.130500
     34 H11         -5.0120     0.8920     2.4270 ha         1 9LK       0.130500
     35 H12         -1.0430     3.2470     0.6490 ha         1 9LK       0.143000
     36 H13          0.4370    -1.4310     0.5090 h4         1 9LK       0.021100
     37 H14          2.6240    -0.7680     0.1540 hn         1 9LK       0.168000
     38 Cl          -7.4530    -1.9360    -0.7610 cl         1 9LK      -0.201000
@<TRIPOS>BOND
     1     1    12 1   
     2     1    24 1   
     3     1    25 1   
     4     1    26 1   
     5     2    14 1   
     6     2    27 1   
     7     2    28 1   
     8     2    29 1   
     9     3     6 ar  
    10     3    11 ar  
    11     3    30 1   
    12     4     7 ar  
    13     4    11 ar  
    14     4    31 1   
    15     5     8 ar  
    16     5    13 ar  
    17     5    32 1   
    18     6    15 ar  
    19     6    33 1   
    20     7    15 ar  
    21     7    34 1   
    22     8    16 ar  
    23     8    35 1   
    24     9    13 ar  
    25     9    18 ar  
    26     9    36 1   
    27    10    17 1   
    28    10    20 1   
    29    10    21 2   
    30    11    38 1   
    31    12    19 2   
    32    12    23 1   
    33    13    20 1   
    34    14    17 2   
    35    14    19 1   
    36    15    22 1   
    37    16    18 ar  
    38    16    22 1   
    39    17    23 1   
    40    20    37 1   
@<TRIPOS>SUBSTRUCTURE
     1 9LK         1 TEMP              0 ****  ****    0 ROOT
