@<TRIPOS>MOLECULE
9LK
   38    40     1     0     0
SMALL
bcc


@<TRIPOS>ATOM
      1 CAA          6.4290    -2.9660     0.3740 c3         1 9LK      -0.125400
      2 CAB          6.4670     1.7230    -1.1740 c3         1 9LK      -0.129400
      3 CAE         -5.3420    -0.1080    -1.2980 ca         1 9LK      -0.114000
      4 CAF         -5.3900    -0.9340     0.9710 ca         1 9LK      -0.114000
      5 CAG          0.7470     1.8440     0.8590 ca         1 9LK      -0.066000
      6 CAH         -4.3040     0.7480    -0.9610 ca         1 9LK      -0.116500
      7 CAI         -4.3530    -0.0760     1.3030 ca         1 9LK      -0.116500
      8 CAJ         -0.5770     2.2130     0.9500 ca         1 9LK      -0.242300
      9 CAK          0.0180    -0.2800     0.0680 ca         1 9LK       0.406200
     10 CAQ          3.4400     0.8100    -0.1430 c          1 9LK       0.621600
     11 CAR         -5.8730    -0.9440    -0.3290 ca         1 9LK       0.027400
     12 CAS          6.0400    -1.5870     0.0090 cc         1 9LK       0.524700
     13 CAT          1.0670     0.5640     0.3970 ca         1 9LK      -0.090700
     14 CAU          5.9510     0.4400    -0.6370 cd         1 9LK       0.347300
     15 CAV         -3.8190     0.7620     0.3370 ca         1 9LK       0.115100
     16 CAW         -1.5440     1.2760     0.5880 ca         1 9LK       0.629600
     17 CAX          4.7080     0.0850    -0.2180 cc         1 9LK       0.051900
     18 NAL         -1.2600     0.0680     0.1700 nb         1 9LK      -0.718000
     19 NAM          6.7790    -0.6470    -0.4800 nd         1 9LK      -0.697000
     20 NAN          2.3800     0.0840     0.2940 ns         1 9LK      -0.463100
     21 OAC          3.3720     1.9890    -0.4520 o          1 9LK      -0.573100
     22 OAO         -2.8380     1.6590     0.6840 os         1 9LK      -0.369400
     23 OAP          4.7730    -1.2140     0.1930 os         1 9LK      -0.357800
     24 H1           6.2600    -3.1490     1.4350 hc         1 9LK       0.070033
     25 H2           5.8500    -3.6990    -0.1880 hc         1 9LK       0.070033
     26 H3           7.4840    -3.1140     0.1590 hc         1 9LK       0.070033
     27 H4           7.0640     2.2380    -0.4190 hc         1 9LK       0.064367
     28 H5           7.1170     1.5380    -2.0290 hc         1 9LK       0.064367
     29 H6           5.6630     2.3870    -1.4780 hc         1 9LK       0.064367
     30 H7          -5.7260    -0.1200    -2.3090 ha         1 9LK       0.149500
     31 H8          -5.8120    -1.5890     1.7210 ha         1 9LK       0.149500
     32 H9           1.5150     2.5410     1.1570 ha         1 9LK       0.164000
     33 H10         -3.8830     1.4070    -1.7090 ha         1 9LK       0.148500
     34 H11         -3.9710    -0.0570     2.3150 ha         1 9LK       0.148500
     35 H12         -0.8600     3.1950     1.3030 ha         1 9LK       0.161000
     36 H13          0.2200    -1.2850    -0.2880 h4         1 9LK       0.021100
     37 H14          2.4950    -0.9110     0.4170 hn         1 9LK       0.334500
     38 CL          -7.1690    -2.0170    -0.7470 cl         1 9LK      -0.109400
@<TRIPOS>BOND
     1     1    12 1   
     2     1    24 1   
     3     1    25 1   
     4     1    26 1   
     5     2    14 1   
     6     2    27 1   
     7     2    28 1   
     8     2    29 1   
     9     3     6 ar  
    10     3    11 ar  
    11     3    30 1   
    12     4     7 ar  
    13     4    11 ar  
    14     4    31 1   
    15     5     8 ar  
    16     5    13 ar  
    17     5    32 1   
    18     6    15 ar  
    19     6    33 1   
    20     7    15 ar  
    21     7    34 1   
    22     8    16 ar  
    23     8    35 1   
    24     9    13 ar  
    25     9    18 ar  
    26     9    36 1   
    27    10    17 1   
    28    10    20 1   
    29    10    21 2   
    30    11    38 1   
    31    12    19 2   
    32    12    23 1   
    33    13    20 1   
    34    14    17 2   
    35    14    19 1   
    36    15    22 1   
    37    16    18 ar  
    38    16    22 1   
    39    17    23 1   
    40    20    37 1   
@<TRIPOS>SUBSTRUCTURE
     1 9LK         1 TEMP              0 ****  ****    0 ROOT
