@<TRIPOS>MOLECULE
9LL
   41    44     1     0     0
SMALL
No Charge or Current Charge


@<TRIPOS>ATOM
      1 C10         -1.0140    -0.9740    -0.3940 c          1 9LL       0.584100
      2 C15         -5.4780    -2.3670     0.0750 cc         1 9LL      -0.312000
      3 C20          3.3420    -1.1190     0.7710 ca         1 9LL      -0.155600
      4 C21          4.2240    -1.4440     1.8130 ca         1 9LL      -0.037000
      5 C22          5.5290    -1.8520     1.4720 ca         1 9LL      -0.122000
      6 C24          5.0120    -1.5920    -0.9110 ca         1 9LL      -0.101000
      7 C26          2.5790    -0.7830    -1.4890 c5         1 9LL       0.150300
      8 C02          0.2130     2.5010    -1.3200 ca         1 9LL       0.141100
      9 C03         -0.0040     3.8390    -0.9470 ca         1 9LL      -0.185000
     10 C04         -0.5300     4.1440     0.3210 ca         1 9LL      -0.094000
     11 C05         -0.8370     3.1070     1.2120 ca         1 9LL       0.136000
     12 C07         -0.6240     1.7690     0.8470 ca         1 9LL      -0.072000
     13 C08         -0.0970     1.4480    -0.4260 ca         1 9LL      -0.123300
     14 C09          0.1430    -0.0200    -0.8280 c3         1 9LL       0.123000
     15 C12         -3.4860    -1.1110    -0.4800 cc         1 9LL       0.530300
     16 C14         -5.7020    -1.1790    -0.5790 cd         1 9LL       0.301900
     17 C19          1.9410    -0.6680     0.8460 c          1 9LL       0.591600
     18 C23          5.9210    -1.9260     0.1150 ca         1 9LL      -0.087000
     19 C25          3.7150    -1.1870    -0.5590 ca         1 9LL      -0.080300
     20 F06         -1.3410     3.3980     2.4320 f          1 9LL      -0.172000
     21 N11         -2.2730    -0.5240    -0.7190 ns         1 9LL      -0.471400
     22 N13         -4.5570    -0.4610    -0.8970 nd         1 9LL      -0.707000
     23 N18          1.5140    -0.4840    -0.4810 n          1 9LL      -0.405800
     24 O01          0.7260     2.2380    -2.5560 oh         1 9LL      -0.540100
     25 O17         -0.8250    -2.0430     0.1710 o          1 9LL      -0.549100
     26 O27          1.2900    -0.4850     1.8640 o          1 9LL      -0.528000
     27 S16         -3.7790    -2.6390     0.3280 ss         1 9LL       0.056600
     28 H2           3.9090    -1.3820     2.8530 ha         1 9LL       0.136000
     29 H3           6.2370    -2.1110     2.2560 ha         1 9LL       0.119000
     30 H4           5.3120    -1.6480    -1.9550 ha         1 9LL       0.119000
     31 H5           2.8370     0.1030    -2.0850 h1         1 9LL       0.064700
     32 H6           2.2910    -1.6030    -2.1590 h1         1 9LL       0.064700
     33 H7           0.2330     4.6490    -1.6340 ha         1 9LL       0.120000
     34 H8          -0.6980     5.1780     0.6120 ha         1 9LL       0.135000
     35 H9          -0.8690     0.9890     1.5630 ha         1 9LL       0.153000
     36 H10          0.0800    -0.0640    -1.9220 h1         1 9LL       0.084700
     37 H11         -6.6740    -0.7850    -0.8520 h4         1 9LL       0.039100
     38 H12          6.9310    -2.2420    -0.1390 ha         1 9LL       0.115000
     39 H13         -2.3070     0.3680    -1.1900 hn         1 9LL       0.345500
     40 H14          0.8810     3.0900    -3.0170 ho         1 9LL       0.471000
     41 H1          -6.2010    -3.0920     0.4230 h4         1 9LL       0.160000
@<TRIPOS>BOND
     1     1    14 1   
     2     1    21 1   
     3     1    25 2   
     4     2    16 2   
     5     2    27 1   
     6     2    41 1   
     7     3     4 ar  
     8     3    17 1   
     9     3    19 ar  
    10     4     5 ar  
    11     4    28 1   
    12     5    18 ar  
    13     5    29 1   
    14     6    18 ar  
    15     6    19 ar  
    16     6    30 1   
    17     7    19 1   
    18     7    23 1   
    19     7    31 1   
    20     7    32 1   
    21     8     9 ar  
    22     8    13 ar  
    23     8    24 1   
    24     9    10 ar  
    25     9    33 1   
    26    10    11 ar  
    27    10    34 1   
    28    11    12 ar  
    29    11    20 1   
    30    12    13 ar  
    31    12    35 1   
    32    13    14 1   
    33    14    23 1   
    34    14    36 1   
    35    15    21 1   
    36    15    22 2   
    37    15    27 1   
    38    16    22 1   
    39    16    37 1   
    40    17    23 1   
    41    17    26 2   
    42    18    38 1   
    43    21    39 1   
    44    24    40 1   
@<TRIPOS>SUBSTRUCTURE
     1 9LL         1 TEMP              0 ****  ****    0 ROOT
