@<TRIPOS>MOLECULE
9LL
   41    44     1     0     0
SMALL
bcc


@<TRIPOS>ATOM
      1 C10         -0.9490    -0.7590    -0.3970 c          1 9LL       0.651100
      2 C15         -4.9990    -2.7860     0.0710 cc         1 9LL      -0.250400
      3 C20          3.2160    -1.0000     0.7090 ca         1 9LL      -0.155600
      4 C21          4.1160    -1.2960     1.7200 ca         1 9LL      -0.055000
      5 C22          5.3060    -1.9150     1.3650 ca         1 9LL      -0.140000
      6 C24          4.6620    -1.9230    -0.9760 ca         1 9LL      -0.119000
      7 C26          2.3170    -0.8770    -1.4560 c5         1 9LL       0.150300
      8 C02          0.4560     2.6890    -1.1470 ca         1 9LL       0.141100
      9 C03          0.2710     4.0140    -0.7630 ca         1 9LL      -0.203000
     10 C04         -0.4560     4.3210     0.3760 ca         1 9LL      -0.112000
     11 C05         -0.9880     3.2880     1.1210 ca         1 9LL       0.100900
     12 C07         -0.8160     1.9690     0.7600 ca         1 9LL      -0.090000
     13 C08         -0.1000     1.6540    -0.3880 ca         1 9LL      -0.123300
     14 C09          0.1370     0.2250    -0.8330 c3         1 9LL       0.123000
     15 C12         -3.3350    -1.1470    -0.5080 cc         1 9LL       0.530300
     16 C14         -5.4570    -1.6650    -0.5320 cd         1 9LL       0.367200
     17 C19          1.8890    -0.3580     0.8000 c          1 9LL       0.734100
     18 C23          5.5730    -2.2230     0.0310 ca         1 9LL      -0.105000
     19 C25          3.4760    -1.3080    -0.6160 ca         1 9LL      -0.080300
     20 F06         -1.6870     3.5720     2.2350 f          1 9LL      -0.136900
     21 N11         -2.2110    -0.3870    -0.7340 ns         1 9LL      -0.538400
     22 N13         -4.5100    -0.7360    -0.8590 nd         1 9LL      -0.707000
     23 N18          1.4370    -0.2630    -0.4790 n          1 9LL      -0.472800
     24 O01          1.1670     2.3480    -2.2390 oh         1 9LL      -0.501100
     25 O17         -0.7130    -1.8170     0.1440 o          1 9LL      -0.549100
     26 O27          1.3070     0.0180     1.8000 o          1 9LL      -0.603500
     27 S16         -3.2870    -2.7010     0.2500 ss         1 9LL      -0.088300
     28 H2           3.8970    -1.0540     2.7530 ha         1 9LL       0.154000
     29 H3           6.0340    -2.1620     2.1270 ha         1 9LL       0.137000
     30 H4           4.8810    -2.1680    -2.0070 ha         1 9LL       0.137000
     31 H5           2.6020    -0.1650    -2.2330 h1         1 9LL       0.064700
     32 H6           1.8330    -1.7280    -1.9450 h1         1 9LL       0.064700
     33 H7           0.6950     4.8150    -1.3560 ha         1 9LL       0.138000
     34 H8          -0.5990     5.3500     0.6750 ha         1 9LL       0.153000
     35 H9          -1.2390     1.1910     1.3830 ha         1 9LL       0.171000
     36 H10          0.0910     0.2110    -1.9280 h1         1 9LL       0.084700
     37 H11         -6.4940    -1.4660    -0.7620 h4         1 9LL       0.039100
     38 H12          6.5070    -2.7060    -0.2250 ha         1 9LL       0.133000
     39 H13         -2.3710     0.4940    -1.2040 hn         1 9LL       0.345500
     40 H14          1.4620     3.1330    -2.7140 ho         1 9LL       0.432000
     41 H1          -5.5580    -3.6420     0.4150 h4         1 9LL       0.178000
@<TRIPOS>BOND
     1     1    14 1   
     2     1    21 1   
     3     1    25 2   
     4     2    16 2   
     5     2    27 1   
     6     2    41 1   
     7     3     4 ar  
     8     3    17 1   
     9     3    19 ar  
    10     4     5 ar  
    11     4    28 1   
    12     5    18 ar  
    13     5    29 1   
    14     6    18 ar  
    15     6    19 ar  
    16     6    30 1   
    17     7    19 1   
    18     7    23 1   
    19     7    31 1   
    20     7    32 1   
    21     8     9 ar  
    22     8    13 ar  
    23     8    24 1   
    24     9    10 ar  
    25     9    33 1   
    26    10    11 ar  
    27    10    34 1   
    28    11    12 ar  
    29    11    20 1   
    30    12    13 ar  
    31    12    35 1   
    32    13    14 1   
    33    14    23 1   
    34    14    36 1   
    35    15    21 1   
    36    15    22 2   
    37    15    27 1   
    38    16    22 1   
    39    16    37 1   
    40    17    23 1   
    41    17    26 2   
    42    18    38 1   
    43    21    39 1   
    44    24    40 1   
@<TRIPOS>SUBSTRUCTURE
     1 9LL         1 TEMP              0 ****  ****    0 ROOT
