@<TRIPOS>MOLECULE
9LM
   52    55     1     0     0
SMALL
No Charge or Current Charge


@<TRIPOS>ATOM
      1 C4          -2.6850    -1.3390     0.0240 cc         1 9LM      -0.068000
      2 C7           1.7730    -2.4150    -0.7540 c6         1 9LM       0.192800
      3 C8           0.5420    -3.1470    -0.1630 c6         1 9LM       0.001900
      4 C10         -4.1490    -1.3240     0.0720 ca         1 9LM      -0.012000
      5 C13         -6.9710    -1.3650     0.1480 ca         1 9LM      -0.104000
      6 C15         -4.8250    -1.9730     1.1240 ca         1 9LM      -0.091500
      7 C20          3.0520     1.2870     1.7630 cc         1 9LM       0.003000
      8 C21          2.9310     2.6420     2.1550 cc         1 9LM      -0.159000
      9 C22          3.0540     3.5290     1.1160 cd         1 9LM      -0.216000
     10 C28         -0.1200     4.1540    -0.9060 c3         1 9LM      -0.111600
     11 C27         -1.4680     3.4210    -1.0110 c3         1 9LM       0.119700
     12 C29         -2.2020     3.7310    -2.3300 c3         1 9LM      -0.111600
     13 N26         -1.2690     1.9800    -0.8620 ns         1 9LM      -0.509900
     14 O25         -3.2530     1.5330     0.1220 o          1 9LM      -0.552100
     15 N5          -1.8210    -0.2740    -0.2410 n          1 9LM       0.026200
     16 C1          -0.5470    -0.8600    -0.3310 cc         1 9LM      -0.165300
     17 C9           0.7860    -0.1500    -0.5170 c6         1 9LM       0.269100
     18 N6           1.9330    -1.0470    -0.1870 n3         1 9LM      -0.710500
     19 C2          -0.6390    -2.2160    -0.1480 cd         1 9LM      -0.117300
     20 C3          -2.0120    -2.5350     0.0780 cd         1 9LM      -0.153000
     21 C11         -4.9000    -0.7140    -0.9530 ca         1 9LM      -0.091500
     22 C12         -6.3050    -0.7300    -0.9130 ca         1 9LM      -0.109000
     23 C14         -6.2310    -1.9890     1.1660 ca         1 9LM      -0.109000
     24 S16          3.4750    -0.3810    -0.4530 sy         1 9LM       1.196600
     25 O17          4.4170    -1.2010     0.3160 o          1 9LM      -0.531000
     26 O18          3.6230    -0.1360    -1.8900 o          1 9LM      -0.531000
     27 C19          3.2580     1.1390     0.4160 cd         1 9LM      -0.485500
     28 S23          3.3350     2.6890    -0.4220 ss         1 9LM       0.336000
     29 H1           2.6600    -3.0330    -0.5520 h1         1 9LM       0.055700
     30 H2           1.6660    -2.3580    -1.8480 h1         1 9LM       0.055700
     31 H3           0.3270    -4.0520    -0.7470 hc         1 9LM       0.061200
     32 H4           0.7700    -3.4740     0.8600 hc         1 9LM       0.061200
     33 H5          -8.0590    -1.3780     0.1800 ha         1 9LM       0.113000
     34 H6          -4.2590    -2.4590     1.9150 ha         1 9LM       0.112000
     35 H7           2.9790     0.4640     2.4700 ha         1 9LM       0.148000
     36 H8           2.7580     2.9320     3.1870 ha         1 9LM       0.139000
     37 H9           3.0030     4.6110     1.1420 h4         1 9LM       0.154000
     38 H10          0.5610     3.8410    -1.7060 hc         1 9LM       0.045200
     39 H11         -0.2630     5.2380    -0.9800 hc         1 9LM       0.045200
     40 H12          0.3550     3.9410     0.0590 hc         1 9LM       0.045200
     41 H13         -2.0990     3.7740    -0.1820 h1         1 9LM       0.081700
     42 H14         -1.6130     3.3950    -3.1930 hc         1 9LM       0.045200
     43 H15         -3.1750     3.2250    -2.3590 hc         1 9LM       0.045200
     44 H16         -2.3770     4.8080    -2.4300 hc         1 9LM       0.045200
     45 H17         -0.4420     1.5730    -1.2720 hn         1 9LM       0.320500
     46 H18          0.8720     0.1950    -1.5580 h1         1 9LM       0.062700
     47 H19          0.8070     0.7390     0.1300 h1         1 9LM       0.062700
     48 H20         -2.4380    -3.5210     0.2370 ha         1 9LM       0.138000
     49 H21         -4.3940    -0.2310    -1.7860 ha         1 9LM       0.112000
     50 H22         -6.8770    -0.2530    -1.7060 ha         1 9LM       0.112500
     51 H23         -6.7440    -2.4860     1.9860 ha         1 9LM       0.112500
     52 C24         -2.1840     1.1100    -0.2960 c          1 9LM       0.617900
@<TRIPOS>BOND
     1     1     4 1   
     2     1    15 1   
     3     1    20 2   
     4     2     3 1   
     5     2    18 1   
     6     2    29 1   
     7     2    30 1   
     8     3    19 1   
     9     3    31 1   
    10     3    32 1   
    11     4     6 ar  
    12     4    21 ar  
    13     5    22 ar  
    14     5    23 ar  
    15     5    33 1   
    16     6    23 ar  
    17     6    34 1   
    18     7     8 1   
    19     7    27 2   
    20     7    35 1   
    21     8     9 2   
    22     8    36 1   
    23     9    28 1   
    24     9    37 1   
    25    10    11 1   
    26    10    38 1   
    27    10    39 1   
    28    10    40 1   
    29    11    12 1   
    30    11    13 1   
    31    11    41 1   
    32    12    42 1   
    33    12    43 1   
    34    12    44 1   
    35    13    45 1   
    36    13    52 1   
    37    14    52 2   
    38    15    16 1   
    39    15    52 1   
    40    16    17 1   
    41    16    19 2   
    42    17    18 1   
    43    17    46 1   
    44    17    47 1   
    45    18    24 1   
    46    19    20 1   
    47    20    48 1   
    48    21    22 ar  
    49    21    49 1   
    50    22    50 1   
    51    23    51 1   
    52    24    25 2   
    53    24    26 2   
    54    24    27 1   
    55    27    28 1   
@<TRIPOS>SUBSTRUCTURE
     1 9LM         1 TEMP              0 ****  ****    0 ROOT
