@<TRIPOS>MOLECULE
9LM
   52    55     1     0     0
SMALL
bcc


@<TRIPOS>ATOM
      1 C4          -2.7080    -1.4740    -0.2350 cc         1 9LM      -0.017300
      2 C7           1.8650    -1.9290    -0.6440 c6         1 9LM       0.192800
      3 C8           0.7090    -2.9140    -0.5490 c6         1 9LM       0.001900
      4 C10         -4.1580    -1.3450    -0.3690 ca         1 9LM      -0.012000
      5 C13         -6.9340    -1.1850    -0.6890 ca         1 9LM      -0.122000
      6 C15         -4.9850    -2.3890     0.0490 ca         1 9LM      -0.109500
      7 C20          3.4340     2.1360    -0.3490 cc         1 9LM      -0.015000
      8 C21          3.9940     2.7000    -1.5200 cc         1 9LM      -0.177000
      9 C22          4.6890     1.7880    -2.2580 cd         1 9LM      -0.089100
     10 C28         -0.6250     4.0320     0.4370 c3         1 9LM      -0.111600
     11 C27         -1.8980     3.2290     0.6570 c3         1 9LM       0.119700
     12 C29         -3.1060     3.8720    -0.0140 c3         1 9LM      -0.111600
     13 N26         -1.6880     1.8730     0.1660 ns         1 9LM      -0.576900
     14 O25         -3.1120     0.8070     1.5790 o          1 9LM      -0.552100
     15 N5          -1.8730    -0.4170     0.0800 n          1 9LM      -0.075200
     16 C1          -0.5650    -0.8480     0.0100 cc         1 9LM      -0.114600
     17 C9           0.6380    -0.0380     0.3580 c6         1 9LM       0.269100
     18 N6           1.7700    -0.9630     0.4590 n3         1 9LM      -0.710500
     19 C2          -0.5620    -2.1580    -0.3640 cd         1 9LM      -0.117300
     20 C3          -1.9160    -2.5550    -0.5210 cd         1 9LM      -0.171000
     21 C11         -4.7440    -0.2230    -0.9580 ca         1 9LM      -0.109500
     22 C12         -6.1190    -0.1420    -1.1110 ca         1 9LM      -0.127000
     23 C14         -6.3600    -2.3110    -0.1140 ca         1 9LM      -0.127000
     24 S16          3.1770    -0.2890     1.0040 sy         1 9LM       1.338200
     25 O17          2.8420     0.5100     2.1670 o          1 9LM      -0.601800
     26 O18          4.1550    -1.3570     1.0960 o          1 9LM      -0.601800
     27 C19          3.7300     0.8070    -0.2380 cd         1 9LM      -0.340600
     28 S23          4.6820     0.2360    -1.5470 ss         1 9LM       0.046200
     29 H1           2.8080    -2.4670    -0.5790 h1         1 9LM       0.055700
     30 H2           1.8400    -1.4080    -1.6080 h1         1 9LM       0.055700
     31 H3           0.6850    -3.5140    -1.4610 hc         1 9LM       0.061200
     32 H4           0.8770    -3.6060     0.2810 hc         1 9LM       0.061200
     33 H5          -8.0070    -1.1220    -0.8110 ha         1 9LM       0.131000
     34 H6          -4.5470    -3.2630     0.5150 ha         1 9LM       0.130000
     35 H7           2.8580     2.6910     0.3780 ha         1 9LM       0.166000
     36 H8           3.8930     3.7390    -1.7970 ha         1 9LM       0.157000
     37 H9           5.2180     1.9510    -3.1850 h4         1 9LM       0.172000
     38 H10         -0.3820     4.1060    -0.6250 hc         1 9LM       0.045200
     39 H11         -0.7510     5.0450     0.8180 hc         1 9LM       0.045200
     40 H12          0.2220     3.5800     0.9540 hc         1 9LM       0.045200
     41 H13         -2.0850     3.1540     1.7290 h1         1 9LM       0.081700
     42 H14         -2.9520     3.9630    -1.0900 hc         1 9LM       0.045200
     43 H15         -4.0090     3.2850     0.1550 hc         1 9LM       0.045200
     44 H16         -3.2760     4.8710     0.3880 hc         1 9LM       0.045200
     45 H17         -1.2100     1.7740    -0.7180 hn         1 9LM       0.320500
     46 H18          0.8270     0.7310    -0.4050 h1         1 9LM       0.062700
     47 H19          0.5080     0.4680     1.3140 h1         1 9LM       0.062700
     48 H20         -2.2710    -3.5140    -0.8670 ha         1 9LM       0.156000
     49 H21         -4.1260     0.5870    -1.3290 ha         1 9LM       0.130000
     50 H22         -6.5540     0.7350    -1.5710 ha         1 9LM       0.130500
     51 H23         -6.9850    -3.1300     0.2190 ha         1 9LM       0.130500
     52 C24         -2.2990     0.8020     0.6820 c          1 9LM       0.684900
@<TRIPOS>BOND
     1     1     4 1   
     2     1    15 1   
     3     1    20 2   
     4     2     3 1   
     5     2    18 1   
     6     2    29 1   
     7     2    30 1   
     8     3    19 1   
     9     3    31 1   
    10     3    32 1   
    11     4     6 ar  
    12     4    21 ar  
    13     5    22 ar  
    14     5    23 ar  
    15     5    33 1   
    16     6    23 ar  
    17     6    34 1   
    18     7     8 1   
    19     7    27 2   
    20     7    35 1   
    21     8     9 2   
    22     8    36 1   
    23     9    28 1   
    24     9    37 1   
    25    10    11 1   
    26    10    38 1   
    27    10    39 1   
    28    10    40 1   
    29    11    12 1   
    30    11    13 1   
    31    11    41 1   
    32    12    42 1   
    33    12    43 1   
    34    12    44 1   
    35    13    45 1   
    36    13    52 1   
    37    14    52 2   
    38    15    16 1   
    39    15    52 1   
    40    16    17 1   
    41    16    19 2   
    42    17    18 1   
    43    17    46 1   
    44    17    47 1   
    45    18    24 1   
    46    19    20 1   
    47    20    48 1   
    48    21    22 ar  
    49    21    49 1   
    50    22    50 1   
    51    23    51 1   
    52    24    25 2   
    53    24    26 2   
    54    24    27 1   
    55    27    28 1   
@<TRIPOS>SUBSTRUCTURE
     1 9LM         1 TEMP              0 ****  ****    0 ROOT
