@<TRIPOS>MOLECULE
9LN
   51    54     1     0     0
SMALL
bcc


@<TRIPOS>ATOM
      1 CAA         -6.7970    -0.7940     0.8590 c3         1 9LN      -0.113100
      2 CAB          0.0290    -2.3770    -1.9940 c3         1 9LN       0.091300
      3 CAF          6.5200     2.8650     1.3030 ca         1 9LN      -0.131000
      4 CAG          6.2250     2.9040    -0.0530 ca         1 9LN      -0.114000
      5 CAH          6.0960     1.7840     2.0620 ca         1 9LN      -0.114000
      6 CAI          5.5040     1.8800    -0.6490 ca         1 9LN      -0.131500
      7 CAJ          5.3850     0.7460     1.4760 ca         1 9LN      -0.131500
      8 CAK         -2.2290    -2.0090     1.2480 ca         1 9LN      -0.082000
      9 CAL         -3.4270    -1.3270     1.3540 ca         1 9LN      -0.148000
     10 CAM          3.6210    -1.4540    -2.0460 cc         1 9LN       0.317200
     11 CAN         -1.3520    -0.2720    -0.1440 ca         1 9LN      -0.121000
     12 CAO          3.5250    -1.1300     0.1190 cd         1 9LN      -0.094300
     13 CAP         -5.8960     0.1390     1.6490 c3         1 9LN       0.091000
     14 CAQ          2.0340    -3.0530    -0.7290 c3         1 9LN       0.181300
     15 CAU          3.0260    -1.9450    -0.8670 cc         1 9LN      -0.307600
     16 CAV         -1.1860    -1.4920     0.4880 ca         1 9LN      -0.133600
     17 CAW          5.0840     0.7990     0.1200 ca         1 9LN       0.015800
     18 CAX         -3.8240     2.3860    -0.6270 c          1 9LN       0.633500
     19 CAY         -4.9790     1.8190     0.1820 c          1 9LN       0.625500
     20 CAZ         -2.5460     0.4250    -0.0220 ca         1 9LN       0.023600
     21 CBA         -3.6020    -0.0890     0.7360 ca         1 9LN       0.054600
     22 NAR          4.4140    -0.4340    -1.8030 nd         1 9LN      -0.517800
     23 NAS         -2.7000     1.6460    -0.6510 ns         1 9LN      -0.454100
     24 NBB          0.6620    -2.5590    -0.7040 n          1 9LN      -0.468800
     25 NBC          4.3500    -0.2420    -0.4830 na         1 9LN       0.177300
     26 NBD         -4.7800     0.6500     0.8490 n          1 9LN      -0.361000
     27 OAC          0.7000    -2.3990     1.5480 o          1 9LN      -0.600100
     28 OAE         -6.0210     2.4380     0.2130 o          1 9LN      -0.560500
     29 H1          -7.6150    -1.1360     1.4920 hc         1 9LN       0.047700
     30 H2          -7.2300    -0.2850    -0.0010 hc         1 9LN       0.047700
     31 H3          -6.2610    -1.6730     0.5010 hc         1 9LN       0.047700
     32 H4           0.4490    -1.5270    -2.5370 h1         1 9LN       0.041700
     33 H5           0.1800    -3.2720    -2.5970 h1         1 9LN       0.041700
     34 H6          -1.0410    -2.2250    -1.8910 h1         1 9LN       0.041700
     35 H8           6.5510     3.7410    -0.6560 ha         1 9LN       0.137000
     36 H9           6.3250     1.7360     3.1190 ha         1 9LN       0.137000
     37 H10          5.2680     1.9220    -1.7030 ha         1 9LN       0.150000
     38 H11          5.0830    -0.0990     2.0810 ha         1 9LN       0.150000
     39 H12         -2.1190    -2.9580     1.7540 ha         1 9LN       0.152000
     40 H13         -4.2200    -1.7790     1.9290 ha         1 9LN       0.146000
     41 H14          3.4990    -1.8240    -3.0540 h4         1 9LN       0.037100
     42 H15         -0.5540     0.1650    -0.7320 ha         1 9LN       0.145000
     43 H16          3.3300    -1.1130     1.1780 h4         1 9LN       0.190000
     44 H17         -6.4600     0.9950     2.0090 h1         1 9LN       0.066700
     45 H18         -5.4900    -0.3520     2.5310 h1         1 9LN       0.066700
     46 H19          2.1250    -3.7390    -1.5720 h1         1 9LN       0.065700
     47 H20          2.2210    -3.6330     0.1730 h1         1 9LN       0.065700
     48 H21         -1.9240     2.0060    -1.1930 hn         1 9LN       0.333500
     49 OAD         -3.9500     3.4460    -1.2000 o          1 9LN      -0.560500
     50 CAT          0.1360    -2.1930     0.4800 c          1 9LN       0.685700
     51 H7           7.0770     3.6700     1.7640 ha         1 9LN       0.137000
@<TRIPOS>BOND
     1     1    13 1   
     2     1    29 1   
     3     1    30 1   
     4     1    31 1   
     5     2    24 1   
     6     2    32 1   
     7     2    33 1   
     8     2    34 1   
     9     3     4 ar  
    10     3     5 ar  
    11     3    51 1   
    12     4     6 ar  
    13     4    35 1   
    14     5     7 ar  
    15     5    36 1   
    16     6    17 ar  
    17     6    37 1   
    18     7    17 ar  
    19     7    38 1   
    20     8     9 ar  
    21     8    16 ar  
    22     8    39 1   
    23     9    21 ar  
    24     9    40 1   
    25    10    15 1   
    26    10    22 2   
    27    10    41 1   
    28    11    16 ar  
    29    11    20 ar  
    30    11    42 1   
    31    12    15 2   
    32    12    25 1   
    33    12    43 1   
    34    13    26 1   
    35    13    44 1   
    36    13    45 1   
    37    14    15 1   
    38    14    24 1   
    39    14    46 1   
    40    14    47 1   
    41    16    50 1   
    42    17    25 1   
    43    18    19 1   
    44    18    23 1   
    45    18    49 2   
    46    19    26 1   
    47    19    28 2   
    48    20    21 ar  
    49    20    23 1   
    50    21    26 1   
    51    22    25 1   
    52    23    48 1   
    53    24    50 1   
    54    27    50 2   
@<TRIPOS>SUBSTRUCTURE
     1 9LN         1 TEMP              0 ****  ****    0 ROOT
