@<TRIPOS>MOLECULE
9LN
   51    54     1     0     0
SMALL
No Charge or Current Charge


@<TRIPOS>ATOM
      1 CAA         -7.0620    -0.5590     0.1460 c3         1 9LN      -0.113100
      2 CAB          0.5230    -1.5970    -1.6420 c3         1 9LN       0.091300
      3 CAF          6.3970     3.1940     0.4580 ca         1 9LN      -0.113000
      4 CAG          5.9460     2.9950    -0.8580 ca         1 9LN      -0.096000
      5 CAH          6.2880     2.1590     1.4020 ca         1 9LN      -0.096000
      6 CAI          5.3840     1.7610    -1.2300 ca         1 9LN      -0.113500
      7 CAJ          5.7260     0.9240     1.0310 ca         1 9LN      -0.113500
      8 CAK         -2.7400    -2.4650     0.8690 ca         1 9LN      -0.064000
      9 CAL         -3.8910    -1.6740     1.0210 ca         1 9LN      -0.130000
     10 CAM          4.2020    -2.2760    -1.6140 cc         1 9LN       0.251900
     11 CAN         -1.4170    -0.4730     0.4760 ca         1 9LN      -0.103000
     12 CAO          3.5710    -0.9190     0.0290 cd         1 9LN      -0.127000
     13 CAP         -6.3210    -0.0090     1.3800 c3         1 9LN       0.091000
     14 CAQ          2.1020    -3.0320    -0.3180 c3         1 9LN       0.181300
     15 CAU          3.2430    -2.0900    -0.5940 cc         1 9LN      -0.242300
     16 CAV         -1.4920    -1.8800     0.5770 ca         1 9LN      -0.133600
     17 CAW          5.2670     0.7190    -0.2870 ca         1 9LN       0.015800
     18 CAX         -3.4770     2.6330     0.5970 c          1 9LN       0.491000
     19 CAY         -4.9110     1.9980     0.8960 c          1 9LN       0.483000
     20 CAZ         -2.5680     0.3190     0.6280 ca         1 9LN       0.023600
     21 CBA         -3.8250    -0.2660     0.9090 ca         1 9LN       0.054600
     22 NAR          5.1100    -1.3230    -1.6980 nd         1 9LN      -0.517800
     23 NAS         -2.4590     1.7160     0.5000 ns         1 9LN      -0.387100
     24 NBB          0.8010    -2.3300    -0.3820 n          1 9LN      -0.401800
     25 NBC          4.7080    -0.5040    -0.6620 na         1 9LN       0.228000
     26 NBD         -4.9970     0.5840     1.0460 n          1 9LN      -0.294000
     27 OAC         -0.1800    -3.8040     1.0810 o          1 9LN      -0.600100
     28 OAE         -5.9020     2.7210     0.9890 o          1 9LN      -0.485000
     29 H1          -8.0230    -0.9960     0.4420 hc         1 9LN       0.047700
     30 H2          -7.2570     0.2450    -0.5740 hc         1 9LN       0.047700
     31 H3          -6.4720    -1.3340    -0.3560 hc         1 9LN       0.047700
     32 H4           0.8330    -0.5500    -1.5380 h1         1 9LN       0.041700
     33 H5           1.0840    -2.0480    -2.4710 h1         1 9LN       0.041700
     34 H6          -0.5450    -1.6380    -1.8910 h1         1 9LN       0.041700
     35 H8           6.0320     3.7960    -1.5890 ha         1 9LN       0.119000
     36 H9           6.6400     2.3120     2.4200 ha         1 9LN       0.119000
     37 H10          5.0360     1.6120    -2.2500 ha         1 9LN       0.132000
     38 H11          5.6490     0.1260     1.7670 ha         1 9LN       0.132000
     39 H12         -2.8230    -3.5460     0.9660 ha         1 9LN       0.134000
     40 H13         -4.8270    -2.1840     1.2260 ha         1 9LN       0.128000
     41 H14          4.2510    -3.0980    -2.3170 h4         1 9LN       0.037100
     42 H15         -0.4610     0.0130     0.3000 ha         1 9LN       0.127000
     43 H16          3.1190    -0.3740     0.8490 h4         1 9LN       0.172000
     44 H17         -6.9600     0.7390     1.8670 h1         1 9LN       0.066700
     45 H18         -6.1900    -0.8070     2.1210 h1         1 9LN       0.066700
     46 H19          2.1060    -3.8530    -1.0480 h1         1 9LN       0.065700
     47 H20          2.2480    -3.4670     0.6800 h1         1 9LN       0.065700
     48 H21         -1.5380     2.0950     0.3110 hn         1 9LN       0.333500
     49 OAD         -3.2760     3.8360     0.4630 o          1 9LN      -0.485000
     50 CAT         -0.2680    -2.7660     0.4350 c          1 9LN       0.618700
     51 H7           6.8320     4.1490     0.7460 ha         1 9LN       0.119000
@<TRIPOS>BOND
     1     1    13 1   
     2     1    29 1   
     3     1    30 1   
     4     1    31 1   
     5     2    24 1   
     6     2    32 1   
     7     2    33 1   
     8     2    34 1   
     9     3     4 ar  
    10     3     5 ar  
    11     3    51 1   
    12     4     6 ar  
    13     4    35 1   
    14     5     7 ar  
    15     5    36 1   
    16     6    17 ar  
    17     6    37 1   
    18     7    17 ar  
    19     7    38 1   
    20     8     9 ar  
    21     8    16 ar  
    22     8    39 1   
    23     9    21 ar  
    24     9    40 1   
    25    10    15 1   
    26    10    22 2   
    27    10    41 1   
    28    11    16 ar  
    29    11    20 ar  
    30    11    42 1   
    31    12    15 2   
    32    12    25 1   
    33    12    43 1   
    34    13    26 1   
    35    13    44 1   
    36    13    45 1   
    37    14    15 1   
    38    14    24 1   
    39    14    46 1   
    40    14    47 1   
    41    16    50 1   
    42    17    25 1   
    43    18    19 1   
    44    18    23 1   
    45    18    49 2   
    46    19    26 1   
    47    19    28 2   
    48    20    21 ar  
    49    20    23 1   
    50    21    26 1   
    51    22    25 1   
    52    23    48 1   
    53    24    50 1   
    54    27    50 2   
@<TRIPOS>SUBSTRUCTURE
     1 9LN         1 TEMP              0 ****  ****    0 ROOT
