@<TRIPOS>MOLECULE
9LO
   33    34     1     0     0
SMALL
abcg2


@<TRIPOS>ATOM
      1 N2A          6.4970    -1.3250    -0.1990 nv         1 9LO      -1.058200
      2 N1           4.8960     0.0700    -1.0490 nc         1 9LO      -0.781300
      3 C2           5.2980    -0.7380    -0.1010 cd         1 9LO       0.757800
      4 N3           4.5630    -0.9930     1.0040 ns         1 9LO      -0.445400
      5 C4           3.3070    -0.4250     1.2390 c          1 9LO       0.591200
      6 O4A          2.6970    -0.7190     2.2630 o          1 9LO      -0.560000
      7 C5           2.8850     0.4620     0.2210 cd         1 9LO      -0.287600
      8 C6           3.6920     0.6640    -0.8950 cc         1 9LO       0.491600
      9 N7           3.3030     1.4560    -1.9040 nv         1 9LO      -0.943000
     10 O8A          0.5040    -0.6150    -0.6540 o          1 9LO      -0.611100
     11 N9          -0.6520     1.0790     0.3590 ns         1 9LO      -0.159000
     12 C1B         -1.9730     0.6810     0.1510 ca         1 9LO      -0.051000
     13 C2B         -2.9420     1.2160     1.0040 ca         1 9LO      -0.175000
     14 C3B         -4.2790     0.8990     0.8450 ca         1 9LO      -0.068000
     15 C4B         -4.7030     0.0380    -0.1640 ca         1 9LO      -0.149600
     16 C5B         -3.7310    -0.4830    -1.0120 ca         1 9LO      -0.068000
     17 C6B         -2.3850    -0.1760    -0.8710 ca         1 9LO      -0.175000
     18 C7B         -6.1720    -0.3170    -0.3330 c          1 9LO       0.715600
     19 O7B         -6.9650     0.1840     0.4880 o          1 9LO      -0.724500
     20 CAW          0.4900     0.4300    -0.0290 c          1 9LO       0.652100
     21 H2A1         6.9890    -1.2560    -1.0730 hn         1 9LO       0.499500
     22 H2A2         6.7680    -2.0700     0.4200 hn         1 9LO       0.499500
     23 H71N         3.9690     1.7060    -2.6140 hn         1 9LO       0.497000
     24 H72N         2.4830     2.0290    -1.8080 hn         1 9LO       0.497000
     25 H9          -0.5430     1.8670     0.9770 hn         1 9LO       0.130000
     26 H2B         -2.6410     1.8820     1.8040 ha         1 9LO       0.099500
     27 H6B         -1.6720    -0.5990    -1.5600 ha         1 9LO       0.099500
     28 H3B         -5.0060     1.3270     1.5230 ha         1 9LO       0.126000
     29 H5B         -4.0300    -1.1460    -1.8130 ha         1 9LO       0.126000
     30 H5A          1.5560     1.8820     0.9560 hn         1 9LO       0.299500
     31 HN3          4.9180    -1.6240     1.7100 hn         1 9LO       0.317500
     32 OXT         -6.4580    -1.0800    -1.2760 o          1 9LO      -0.724500
     33 N5A          1.6330     1.0930     0.3300 ns         1 9LO      -0.419100
@<TRIPOS>BOND
     1     1     3 1   
     2     1    21 1   
     3     1    22 1   
     4     2     3 2   
     5     2     8 1   
     6     3     4 1   
     7     4     5 1   
     8     4    31 1   
     9     5     6 2   
    10     5     7 1   
    11     7     8 2   
    12     7    33 1   
    13     8     9 1   
    14     9    23 1   
    15     9    24 1   
    16    10    20 2   
    17    11    12 1   
    18    11    20 1   
    19    11    25 1   
    20    12    13 ar  
    21    12    17 ar  
    22    13    14 ar  
    23    13    26 1   
    24    14    15 ar  
    25    14    28 1   
    26    15    16 ar  
    27    15    18 1   
    28    16    17 ar  
    29    16    29 1   
    30    17    27 1   
    31    18    19 1   
    32    18    32 1   
    33    20    33 1   
    34    30    33 1   
@<TRIPOS>SUBSTRUCTURE
     1 9LO         1 TEMP              0 ****  ****    0 ROOT
