@<TRIPOS>MOLECULE
9LO
   33    34     1     0     0
SMALL
No Charge or Current Charge


@<TRIPOS>ATOM
      1 N2A          6.8680    -0.3910    -0.2410 nv         1 9LO      -1.058200
      2 N1           4.8670    -0.1580    -1.1290 nc         1 9LO      -0.781300
      3 C2           5.5780    -0.2110    -0.0450 cd         1 9LO       0.757800
      4 N3           5.1530    -0.0970     1.2100 ns         1 9LO      -0.445400
      5 C4           3.8570     0.0800     1.5230 c          1 9LO       0.591200
      6 O4A          3.4810     0.1910     2.6800 o          1 9LO      -0.560000
      7 C5           2.9600     0.1200     0.3450 cd         1 9LO      -0.287600
      8 C6           3.5440     0.0210    -0.9140 cc         1 9LO       0.491600
      9 N7           2.9640     0.1040    -2.0980 nv         1 9LO      -0.943000
     10 O8A          0.4300    -0.3650    -1.2840 o          1 9LO      -0.611100
     11 N9          -0.7110     0.4610     0.5500 ns         1 9LO      -0.159000
     12 C1B         -2.0940     0.4410     0.2160 ca         1 9LO      -0.051000
     13 C2B         -3.0060     0.8590     1.2010 ca         1 9LO      -0.175000
     14 C3B         -4.3890     0.8690     0.9480 ca         1 9LO      -0.068000
     15 C4B         -4.8950     0.4600    -0.3060 ca         1 9LO      -0.149600
     16 C5B         -3.9760     0.0420    -1.2950 ca         1 9LO      -0.068000
     17 C6B         -2.5930     0.0330    -1.0380 ca         1 9LO      -0.175000
     18 C7B         -6.3900     0.4690    -0.5850 c          1 9LO       0.715600
     19 O7B         -7.1480     0.8390     0.3010 o          1 9LO      -0.724500
     20 CAW          0.4300     0.0960    -0.1510 c          1 9LO       0.652100
     21 H2A1         7.0820    -0.6490    -1.1950 hn         1 9LO       0.499500
     22 H2A2         7.3700    -0.9120     0.4670 hn         1 9LO       0.499500
     23 H71N         3.5110    -0.2700    -2.8610 hn         1 9LO       0.497000
     24 H72N         1.9660    -0.1060    -2.1060 hn         1 9LO       0.497000
     25 H9          -0.5300     0.8150     1.4800 hn         1 9LO       0.130000
     26 H2B         -2.6440     1.1790     2.1750 ha         1 9LO       0.099500
     27 H6B         -1.9300    -0.2940    -1.8310 ha         1 9LO       0.099500
     28 H3B         -5.0660     1.1980     1.7330 ha         1 9LO       0.126000
     29 H5B         -4.3310    -0.2790    -2.2730 ha         1 9LO       0.126000
     30 H5A          1.3410     0.5690     1.5620 hn         1 9LO       0.299500
     31 HN3          5.8070    -0.1180     1.9730 hn         1 9LO       0.317500
     32 OXT         -6.7830     0.1070    -1.6850 o          1 9LO      -0.724500
     33 N5A          1.5750     0.2970     0.6130 ns         1 9LO      -0.419100
@<TRIPOS>BOND
     1     1     3 1   
     2     1    21 1   
     3     1    22 1   
     4     2     3 2   
     5     2     8 1   
     6     3     4 1   
     7     4     5 1   
     8     4    31 1   
     9     5     6 2   
    10     5     7 1   
    11     7     8 2   
    12     7    33 1   
    13     8     9 1   
    14     9    23 1   
    15     9    24 1   
    16    10    20 2   
    17    11    12 1   
    18    11    20 1   
    19    11    25 1   
    20    12    13 ar  
    21    12    17 ar  
    22    13    14 ar  
    23    13    26 1   
    24    14    15 ar  
    25    14    28 1   
    26    15    16 ar  
    27    15    18 1   
    28    16    17 ar  
    29    16    29 1   
    30    17    27 1   
    31    18    19 1   
    32    18    32 1   
    33    20    33 1   
    34    30    33 1   
@<TRIPOS>SUBSTRUCTURE
     1 9LO         1 TEMP              0 ****  ****    0 ROOT
