@<TRIPOS>MOLECULE
9LP
   68    72     1     0     0
SMALL
abcg2


@<TRIPOS>ATOM
      1 C4          -0.7080    -2.5710     2.1000 c6         1 9LP      -0.076400
      2 C5          -1.9620    -1.9800     1.4480 c6         1 9LP      -0.065700
      3 C6          -3.0870    -1.8990     2.4830 c6         1 9LP      -0.076400
      4 C7          -1.6630    -0.6020     0.8560 c3         1 9LP       0.005300
      5 C8          -0.5150    -0.6380    -0.1600 c          1 9LP       0.577100
      6 C13         -2.7620     1.3780    -0.1400 cc         1 9LP       0.468400
      7 C15         -6.0010    -0.8550    -2.1950 ca         1 9LP       0.108000
      8 C17         -4.3660    -1.7830    -0.6560 ca         1 9LP      -0.120000
      9 C20         -0.9170     2.9340    -0.6050 ca         1 9LP      -0.073500
     10 C21          0.1000     3.7850    -0.2060 ca         1 9LP      -0.109500
     11 C22          0.3080     3.9970     1.1480 ca         1 9LP       0.131000
     12 C24         -1.5060     2.5400     1.6920 ca         1 9LP      -0.073500
     13 C1          -3.3900    -3.2660     3.0880 c6         1 9LP      -0.073400
     14 C2          -2.1450    -3.8850     3.7110 c6         1 9LP      -0.076400
     15 C3          -1.0010    -3.9400     2.7060 c6         1 9LP      -0.073400
     16 O10         -0.7020    -1.0310    -1.3000 o          1 9LP      -0.585100
     17 N28          0.6510    -0.1810     0.3040 ns         1 9LP      -0.491900
     18 C29          1.8580    -0.0570    -0.4910 c6         1 9LP       0.107700
     19 C30          2.5810    -1.3920    -0.6670 c6         1 9LP      -0.088400
     20 C31          3.8610    -1.2130    -1.4780 c6         1 9LP      -0.088400
     21 C32          4.7730    -0.1870    -0.8250 c6         1 9LP       0.232300
     22 C33          4.0640     1.1450    -0.6370 c6         1 9LP      -0.088400
     23 C34          2.7780     0.9700     0.1620 c6         1 9LP      -0.088400
     24 O35          5.9230    -0.0050    -1.6570 os         1 9LP      -0.598700
     25 S36          7.4000    -0.1550    -0.9660 s6         1 9LP       1.496300
     26 O37          7.4630    -1.5280    -0.4560 o          1 9LP      -0.710533
     27 O38          8.2650     0.1080    -2.1140 o          1 9LP      -0.710533
     28 O39          7.4570     0.8630     0.0880 o          1 9LP      -0.710533
     29 N9          -2.7950     0.0460     0.1980 na         1 9LP      -0.154600
     30 C12         -3.8250    -0.5020    -0.5390 ca         1 9LP      -0.041200
     31 C11         -4.3810     0.5770    -1.2470 ca         1 9LP       0.071400
     32 N14         -3.6900     1.7280    -0.9810 nd         1 9LP      -0.556100
     33 C19         -1.7180     2.2950     0.3380 ca         1 9LP      -0.121900
     34 C23         -0.4910     3.3890     2.1040 ca         1 9LP      -0.109500
     35 C18         -5.4830     0.4090    -2.0840 ca         1 9LP      -0.070000
     36 C16         -5.4480    -1.9270    -1.4910 ca         1 9LP       0.140000
     37 F26         -6.0040    -3.1350    -1.6450 f          1 9LP      -0.168000
     38 F27         -7.0570    -1.0920    -2.9830 f          1 9LP      -0.169000
     39 H1           0.1010    -2.6680     1.3730 hc         1 9LP       0.046700
     40 H2          -0.3480    -1.8920     2.8820 hc         1 9LP       0.046700
     41 H3          -2.2410    -2.6640     0.6410 hc         1 9LP       0.073700
     42 H4          -2.7750    -1.2110     3.2780 hc         1 9LP       0.046700
     43 H5          -3.9970    -1.4760     2.0540 hc         1 9LP       0.046700
     44 H6          -1.3800     0.0340     1.6970 h1         1 9LP       0.069700
     45 H7          -3.9880    -2.6540    -0.1440 ha         1 9LP       0.142000
     46 H9           0.7270     4.2680    -0.9430 ha         1 9LP       0.135500
     47 H10         -2.1400     2.0780     2.4390 ha         1 9LP       0.130000
     48 H11         -4.1830    -3.1690     3.8330 hc         1 9LP       0.042950
     49 H12         -3.7800    -3.9300     2.3080 hc         1 9LP       0.042950
     50 H13         -1.8400    -3.2870     4.5770 hc         1 9LP       0.038700
     51 H14         -2.3660    -4.8860     4.0890 hc         1 9LP       0.038700
     52 H15         -1.2550    -4.6390     1.9020 hc         1 9LP       0.042950
     53 H16         -0.0970    -4.3290     3.1800 hc         1 9LP       0.042950
     54 H17          0.6960     0.1250     1.2640 hn         1 9LP       0.309500
     55 H18          1.5680     0.3170    -1.4790 h1         1 9LP       0.069700
     56 H19          2.8170    -1.8020     0.3210 hc         1 9LP       0.038700
     57 H20          1.9260    -2.1110    -1.1620 hc         1 9LP       0.038700
     58 H21          4.3840    -2.1670    -1.5680 hc         1 9LP       0.059450
     59 H22          3.6110    -0.8840    -2.4920 hc         1 9LP       0.059450
     60 H23          5.0660    -0.5710     0.1600 h1         1 9LP       0.043700
     61 H24          4.7250     1.8480    -0.1250 hc         1 9LP       0.059450
     62 H25          3.8320     1.5750    -1.6170 hc         1 9LP       0.059450
     63 H26          2.2600     1.9270     0.2510 hc         1 9LP       0.038700
     64 H27          3.0180     0.6440     1.1800 hc         1 9LP       0.038700
     65 H28         -0.3320     3.5760     3.1570 ha         1 9LP       0.135500
     66 H29         -5.9100     1.2400    -2.6290 ha         1 9LP       0.147000
     67 CL25         1.5970     5.0330     1.6540 cl         1 9LP      -0.187000
     68 H8          -1.0760     2.7540    -1.6600 ha         1 9LP       0.130000
@<TRIPOS>BOND
     1     1     2 1   
     2     1    15 1   
     3     1    39 1   
     4     1    40 1   
     5     2     3 1   
     6     2     4 1   
     7     2    41 1   
     8     3    13 1   
     9     3    42 1   
    10     3    43 1   
    11     4     5 1   
    12     4    29 1   
    13     4    44 1   
    14     5    16 2   
    15     5    17 1   
    16     6    29 1   
    17     6    32 2   
    18     6    33 1   
    19     7    35 ar  
    20     7    36 ar  
    21     7    38 1   
    22     8    30 ar  
    23     8    36 ar  
    24     8    45 1   
    25     9    10 ar  
    26     9    33 ar  
    27     9    68 1   
    28    10    11 ar  
    29    10    46 1   
    30    11    34 ar  
    31    11    67 1   
    32    12    33 ar  
    33    12    34 ar  
    34    12    47 1   
    35    13    14 1   
    36    13    48 1   
    37    13    49 1   
    38    14    15 1   
    39    14    50 1   
    40    14    51 1   
    41    15    52 1   
    42    15    53 1   
    43    17    18 1   
    44    17    54 1   
    45    18    19 1   
    46    18    23 1   
    47    18    55 1   
    48    19    20 1   
    49    19    56 1   
    50    19    57 1   
    51    20    21 1   
    52    20    58 1   
    53    20    59 1   
    54    21    22 1   
    55    21    24 1   
    56    21    60 1   
    57    22    23 1   
    58    22    61 1   
    59    22    62 1   
    60    23    63 1   
    61    23    64 1   
    62    24    25 1   
    63    25    26 1   
    64    25    27 1   
    65    25    28 1   
    66    29    30 1   
    67    30    31 ar  
    68    31    32 1   
    69    31    35 ar  
    70    34    65 1   
    71    35    66 1   
    72    36    37 1   
@<TRIPOS>SUBSTRUCTURE
     1 9LP         1 TEMP              0 ****  ****    0 ROOT
