@<TRIPOS>MOLECULE
9LP
   68    72     1     0     0
SMALL
No Charge or Current Charge


@<TRIPOS>ATOM
      1 C4          -0.8590    -2.6870     2.4840 c6         1 9LP      -0.076400
      2 C5          -2.0040    -2.0920     1.6110 c6         1 9LP      -0.065700
      3 C6          -3.2430    -1.7760     2.5030 c6         1 9LP      -0.076400
      4 C7          -1.5020    -0.8500     0.7880 c3         1 9LP       0.005300
      5 C8          -0.4010    -1.1810    -0.2480 c          1 9LP       0.577100
      6 C13         -2.6520     1.4330     0.2730 cc         1 9LP       0.468400
      7 C15         -5.2610    -0.5130    -2.8780 ca         1 9LP       0.108000
      8 C17         -3.6900    -1.6250    -1.3600 ca         1 9LP      -0.120000
      9 C20         -1.3170     3.5060     0.6310 ca         1 9LP      -0.073500
     10 C21         -0.5670     4.3650     1.4530 ca         1 9LP      -0.109500
     11 C22         -0.3560     4.0400     2.8010 ca         1 9LP       0.131000
     12 C24         -1.6540     2.0020     2.5100 ca         1 9LP      -0.073500
     13 C1          -3.7130    -3.0260     3.2870 c6         1 9LP      -0.073400
     14 C2          -2.5670    -3.6140     4.1440 c6         1 9LP      -0.076400
     15 C3          -1.3300    -3.9350     3.2720 c6         1 9LP      -0.073400
     16 O10         -0.4720    -2.1190    -1.0300 o          1 9LP      -0.585100
     17 N28          0.6920    -0.3400    -0.2140 ns         1 9LP      -0.491900
     18 C29          1.8790    -0.4510    -1.0650 c6         1 9LP       0.107700
     19 C30          2.8660    -1.4990    -0.4890 c6         1 9LP      -0.088400
     20 C31          4.1600    -1.5810    -1.3380 c6         1 9LP      -0.088400
     21 C32          4.8740    -0.2070    -1.4310 c6         1 9LP       0.232300
     22 C33          3.8790     0.8300    -2.0180 c6         1 9LP      -0.088400
     23 C34          2.5840     0.9240    -1.1700 c6         1 9LP      -0.088400
     24 O35          6.0050    -0.3220    -2.3090 os         1 9LP      -0.598700
     25 S36          7.4920     0.0220    -1.7060 s6         1 9LP       1.496300
     26 O37          7.6630    -0.9380    -0.6060 o          1 9LP      -0.710533
     27 O38          8.3930    -0.1950    -2.8470 o          1 9LP      -0.710533
     28 O39          7.3870     1.4230    -1.2720 o          1 9LP      -0.710533
     29 N9          -2.5430     0.0310     0.1850 na         1 9LP      -0.154600
     30 C12         -3.4010    -0.3610    -0.8140 ca         1 9LP      -0.041200
     31 C11         -3.9970     0.7820    -1.2810 ca         1 9LP       0.071400
     32 N14         -3.5350     1.9130    -0.6240 nd         1 9LP      -0.556100
     33 C19         -1.8410     2.2980     1.1410 ca         1 9LP      -0.121900
     34 C23         -0.9050     2.8630     3.3320 ca         1 9LP      -0.109500
     35 C18         -4.9390     0.7390    -2.3180 ca         1 9LP      -0.070000
     36 C16         -4.6360    -1.6900    -2.4020 ca         1 9LP       0.140000
     37 F26         -4.9380    -2.8900    -2.9490 f          1 9LP      -0.168000
     38 F27         -6.1680    -0.5790    -3.8800 f          1 9LP      -0.169000
     39 H1          -0.0020    -2.9640     1.8540 hc         1 9LP       0.046700
     40 H2          -0.4920    -1.9270     3.1890 hc         1 9LP       0.046700
     41 H3          -2.2980    -2.8650     0.8920 hc         1 9LP       0.073700
     42 H4          -3.0020    -0.9760     3.2140 hc         1 9LP       0.046700
     43 H5          -4.0760    -1.4090     1.8890 hc         1 9LP       0.046700
     44 H6          -0.9860    -0.2380     1.5320 h1         1 9LP       0.069700
     45 H7          -3.2070    -2.5320    -1.0190 ha         1 9LP       0.142000
     46 H9          -0.1540     5.2850     1.0460 ha         1 9LP       0.135500
     47 H10         -2.1000     1.1140     2.9480 ha         1 9LP       0.130000
     48 H11         -4.5630    -2.7640     3.9310 hc         1 9LP       0.042950
     49 H12         -4.0780    -3.7880     2.5840 hc         1 9LP       0.042950
     50 H13         -2.2900    -2.9000     4.9320 hc         1 9LP       0.038700
     51 H14         -2.9100    -4.5240     4.6540 hc         1 9LP       0.038700
     52 H15         -1.5710    -4.7460     2.5710 hc         1 9LP       0.042950
     53 H16         -0.5130    -4.3040     3.9060 hc         1 9LP       0.042950
     54 H17          0.6670     0.4120     0.4630 hn         1 9LP       0.309500
     55 H18          1.5630    -0.7670    -2.0720 h1         1 9LP       0.069700
     56 H19          3.1210    -1.2430     0.5490 hc         1 9LP       0.038700
     57 H20          2.3850    -2.4860    -0.4560 hc         1 9LP       0.038700
     58 H21          4.8420    -2.3190    -0.8950 hc         1 9LP       0.059450
     59 H22          3.9190    -1.9460    -2.3460 hc         1 9LP       0.059450
     60 H23          5.1860     0.1130    -0.4240 h1         1 9LP       0.043700
     61 H24          4.3610     1.8160    -2.0610 hc         1 9LP       0.059450
     62 H25          3.6260     0.5600    -3.0520 hc         1 9LP       0.059450
     63 H26          1.9020     1.6570    -1.6210 hc         1 9LP       0.038700
     64 H27          2.8290     1.2990    -0.1670 hc         1 9LP       0.038700
     65 H28         -0.7590     2.6230     4.3820 ha         1 9LP       0.135500
     66 H29         -5.4060     1.6490    -2.6830 ha         1 9LP       0.147000
     67 Cl25         0.5790     5.1160     3.8300 cl         1 9LP      -0.187000
     68 H8          -1.4770     3.7730    -0.4120 ha         1 9LP       0.130000
@<TRIPOS>BOND
     1     1     2 1   
     2     1    15 1   
     3     1    39 1   
     4     1    40 1   
     5     2     3 1   
     6     2     4 1   
     7     2    41 1   
     8     3    13 1   
     9     3    42 1   
    10     3    43 1   
    11     4     5 1   
    12     4    29 1   
    13     4    44 1   
    14     5    16 2   
    15     5    17 1   
    16     6    29 1   
    17     6    32 2   
    18     6    33 1   
    19     7    35 ar  
    20     7    36 ar  
    21     7    38 1   
    22     8    30 ar  
    23     8    36 ar  
    24     8    45 1   
    25     9    10 ar  
    26     9    33 ar  
    27     9    68 1   
    28    10    11 ar  
    29    10    46 1   
    30    11    34 ar  
    31    11    67 1   
    32    12    33 ar  
    33    12    34 ar  
    34    12    47 1   
    35    13    14 1   
    36    13    48 1   
    37    13    49 1   
    38    14    15 1   
    39    14    50 1   
    40    14    51 1   
    41    15    52 1   
    42    15    53 1   
    43    17    18 1   
    44    17    54 1   
    45    18    19 1   
    46    18    23 1   
    47    18    55 1   
    48    19    20 1   
    49    19    56 1   
    50    19    57 1   
    51    20    21 1   
    52    20    58 1   
    53    20    59 1   
    54    21    22 1   
    55    21    24 1   
    56    21    60 1   
    57    22    23 1   
    58    22    61 1   
    59    22    62 1   
    60    23    63 1   
    61    23    64 1   
    62    24    25 1   
    63    25    26 1   
    64    25    27 1   
    65    25    28 1   
    66    29    30 1   
    67    30    31 ar  
    68    31    32 1   
    69    31    35 ar  
    70    34    65 1   
    71    35    66 1   
    72    36    37 1   
@<TRIPOS>SUBSTRUCTURE
     1 9LP         1 TEMP              0 ****  ****    0 ROOT
