@<TRIPOS>MOLECULE
9LR
   26    26     1     0     0
SMALL
bcc


@<TRIPOS>ATOM
      1 C1         -19.8910     5.3910    19.9140 c2         1 9LR      -0.118400
      2 C2         -19.1800     5.8230    18.6630 c6         1 9LR      -0.036200
      3 C3         -20.0170     5.5760    17.4100 c6         1 9LR      -0.035200
      4 C4         -20.5730     4.1780    17.4030 c2         1 9LR      -0.109400
      5 C5         -21.4730     3.9500    18.5920 c6         1 9LR      -0.001000
      6 C6         -20.9370     4.5660    19.8540 c2         1 9LR      -0.170200
      7 C7         -20.3070     3.2520    16.4710 c2         1 9LR      -0.113400
      8 C8         -19.4100     3.4790    15.2860 c3         1 9LR      -0.053400
      9 C9         -20.8840     1.8620    16.4680 c3         1 9LR      -0.053400
     10 C          -19.3670     5.9370    21.2060 c3         1 9LR      -0.050900
     11 H2         -18.2200     5.2980    18.5860 hc         1 9LR       0.045700
     12 H3         -18.9290     6.8860    18.7350 hc         1 9LR       0.045700
     13 H4         -19.4290     5.8080    16.5250 hc         1 9LR       0.045200
     14 H5         -20.8560     6.2820    17.4160 hc         1 9LR       0.045200
     15 H7         -22.4670     4.3700    18.3880 hc         1 9LR       0.051200
     16 H8         -21.6470     2.8900    18.7780 hc         1 9LR       0.051200
     17 H9         -21.4470     4.2900    20.7720 ha         1 9LR       0.118000
     18 H12        -18.9620     4.4680    15.2410 hc         1 9LR       0.037033
     19 H13        -18.5950     2.7500    15.2820 hc         1 9LR       0.037033
     20 H14        -19.9620     3.3250    14.3550 hc         1 9LR       0.037033
     21 H15        -21.5300     1.6370    17.3120 hc         1 9LR       0.037033
     22 H16        -21.4680     1.6990    15.5580 hc         1 9LR       0.037033
     23 H17        -20.0850     1.1160    16.4530 hc         1 9LR       0.037033
     24 H18        -19.9170     5.5530    22.0650 hc         1 9LR       0.038033
     25 H19        -18.3130     5.6830    21.3390 hc         1 9LR       0.038033
     26 H20        -19.4270     7.0280    21.2230 hc         1 9LR       0.038033
@<TRIPOS>BOND
     1     1     2 1   
     2     1     6 2   
     3     1    10 1   
     4     2     3 1   
     5     2    11 1   
     6     2    12 1   
     7     3     4 1   
     8     3    13 1   
     9     3    14 1   
    10     4     5 1   
    11     4     7 2   
    12     5     6 1   
    13     5    15 1   
    14     5    16 1   
    15     6    17 1   
    16     7     8 1   
    17     7     9 1   
    18     8    18 1   
    19     8    19 1   
    20     8    20 1   
    21     9    21 1   
    22     9    22 1   
    23     9    23 1   
    24    10    24 1   
    25    10    25 1   
    26    10    26 1   
@<TRIPOS>SUBSTRUCTURE
     1 9LR         1 TEMP              0 ****  ****    0 ROOT
