@<TRIPOS>MOLECULE
9LR
   26    26     1     0     0
SMALL
No Charge or Current Charge


@<TRIPOS>ATOM
      1 C1         -19.8950     5.4200    19.9530 c2         1 9LR      -0.118400
      2 C2         -19.1800     5.8580    18.6790 c6         1 9LR      -0.036200
      3 C3         -20.0390     5.5920    17.4240 c6         1 9LR      -0.035200
      4 C4         -20.5680     4.1540    17.4150 c2         1 9LR      -0.109400
      5 C5         -21.4400     3.8840    18.6500 c6         1 9LR      -0.001000
      6 C6         -20.9160     4.5450    19.9220 c2         1 9LR      -0.220200
      7 C7         -20.3160     3.2370    16.4430 c2         1 9LR      -0.113400
      8 C8         -19.3860     3.4400    15.2490 c3         1 9LR      -0.053400
      9 C9         -20.9360     1.8440    16.3740 c3         1 9LR      -0.053400
     10 C          -19.3530     6.0250    21.2330 c3         1 9LR      -0.050900
     11 H2         -18.2190     5.3320    18.5980 hc         1 9LR       0.045700
     12 H3         -18.9490     6.9310    18.7270 hc         1 9LR       0.045700
     13 H4         -19.4730     5.8580    16.5260 hc         1 9LR       0.045200
     14 H5         -20.8980     6.2770    17.4310 hc         1 9LR       0.045200
     15 H7         -22.4600     4.2460    18.4580 hc         1 9LR       0.051200
     16 H8         -21.5250     2.8090    18.8520 hc         1 9LR       0.051200
     17 H9         -21.4110     4.2430    20.8470 ha         1 9LR       0.168000
     18 H12        -18.7150     4.2970    15.3460 hc         1 9LR       0.037033
     19 H13        -18.7350     2.5680    15.1120 hc         1 9LR       0.037033
     20 H14        -19.9600     3.5680    14.3240 hc         1 9LR       0.037033
     21 H15        -21.7970     1.7120    17.0360 hc         1 9LR       0.037033
     22 H16        -21.3000     1.6280    15.3620 hc         1 9LR       0.037033
     23 H17        -20.1980     1.0730    16.6280 hc         1 9LR       0.037033
     24 H18        -19.8900     5.6570    22.1150 hc         1 9LR       0.038033
     25 H19        -18.2920     5.7800    21.3660 hc         1 9LR       0.038033
     26 H20        -19.4450     7.1180    21.2230 hc         1 9LR       0.038033
@<TRIPOS>BOND
     1     1     2 1   
     2     1     6 2   
     3     1    10 1   
     4     2     3 1   
     5     2    11 1   
     6     2    12 1   
     7     3     4 1   
     8     3    13 1   
     9     3    14 1   
    10     4     5 1   
    11     4     7 2   
    12     5     6 1   
    13     5    15 1   
    14     5    16 1   
    15     6    17 1   
    16     7     8 1   
    17     7     9 1   
    18     8    18 1   
    19     8    19 1   
    20     8    20 1   
    21     9    21 1   
    22     9    22 1   
    23     9    23 1   
    24    10    24 1   
    25    10    25 1   
    26    10    26 1   
@<TRIPOS>SUBSTRUCTURE
     1 9LR         1 TEMP              0 ****  ****    0 ROOT
