@<TRIPOS>MOLECULE
9LS
   58    62     1     0     0
SMALL
abcg2


@<TRIPOS>ATOM
      1 N1           1.1190     0.5780    -0.2130 na         1 9LS      -0.168600
      2 N3           1.2150     2.8100    -0.1540 nc         1 9LS      -0.547100
      3 C4           2.2230     0.8960     0.5480 ca         1 9LS      -0.054200
      4 C5           2.2690     2.2980     0.5530 ca         1 9LS       0.070400
      5 C6          -0.1890    -1.1370     0.8690 c          1 9LS       0.592100
      6 C7           0.5140    -0.7290    -0.4250 c3         1 9LS       0.014300
      7 C8           3.1710     0.1340     1.2290 ca         1 9LS      -0.112000
      8 C10          3.2870     2.9820     1.2170 ca         1 9LS      -0.071000
      9 C13          4.2260     2.2260     1.8690 ca         1 9LS       0.115000
     10 C17          1.4890    -1.8010    -0.9210 c6         1 9LS      -0.065700
     11 C22         -3.0320     2.1340    -2.8140 ca         1 9LS       0.131000
     12 C24         -2.9640     2.6470    -1.5280 ca         1 9LS      -0.107000
     13 C28         -4.5450    -1.0330     2.8790 ca         1 9LS      -0.131000
     14 C16         -3.6050    -0.7910     1.9000 ca         1 9LS       0.135000
     15 C32         -4.2910    -2.0240     3.8170 ca         1 9LS      -0.095000
     16 C31         -3.1150    -2.7580     3.7490 ca         1 9LS      -0.107000
     17 C27         -2.1870    -2.5120     2.7470 ca         1 9LS      -0.085000
     18 C14         -2.4210    -1.5140     1.8060 ca         1 9LS      -0.076000
     19 O15          0.4310    -1.3370     1.8930 o          1 9LS      -0.557100
     20 C29          0.7340    -3.1080    -1.1750 c6         1 9LS      -0.073900
     21 C33          1.6730    -4.1930    -1.6950 c6         1 9LS      -0.073400
     22 C35          2.4080    -3.7400    -2.9510 c6         1 9LS      -0.076400
     23 C34          3.1540    -2.4340    -2.7030 c6         1 9LS      -0.073400
     24 C30          2.2150    -1.3470    -2.1880 c6         1 9LS      -0.073900
     25 C2           0.5570     1.7740    -0.5880 cd         1 9LS       0.463400
     26 F21          5.2340     2.8130     2.5270 f          1 9LS      -0.163000
     27 C11          4.1630     0.8290     1.8750 ca         1 9LS       0.146000
     28 F20          5.1090     0.1610     2.5480 f          1 9LS      -0.162000
     29 C12         -0.6830     1.8750    -1.3710 ca         1 9LS      -0.124900
     30 C18         -0.7720     1.3720    -2.6670 ca         1 9LS      -0.074500
     31 C25         -1.9440     1.4980    -3.3940 ca         1 9LS      -0.107000
     32 C19         -1.7850     2.5160    -0.8120 ca         1 9LS      -0.074500
     33 H1          -0.2280    -0.5960    -1.2140 h1         1 9LS       0.075700
     34 H2           3.1480    -0.9430     1.2930 ha         1 9LS       0.149000
     35 H3           3.3360     4.0630     1.2220 ha         1 9LS       0.151000
     36 H4           2.2350    -2.0010    -0.1470 hc         1 9LS       0.074700
     37 H5          -3.8180     3.1390    -1.0840 ha         1 9LS       0.136000
     38 H7          -5.0170    -2.2230     4.5930 ha         1 9LS       0.122000
     39 H8          -2.9200    -3.5360     4.4740 ha         1 9LS       0.123000
     40 H9          -1.2890    -3.1090     2.6920 ha         1 9LS       0.136000
     41 H11          0.2470    -3.4610    -0.2630 hc         1 9LS       0.044200
     42 H12         -0.0600    -2.9300    -1.9090 hc         1 9LS       0.044200
     43 H13          2.4010    -4.4430    -0.9160 hc         1 9LS       0.045450
     44 H14          1.1040    -5.1050    -1.8930 hc         1 9LS       0.045450
     45 H15          3.1010    -4.5150    -3.2860 hc         1 9LS       0.042200
     46 H16          1.6850    -3.5940    -3.7600 hc         1 9LS       0.042200
     47 H17          3.9490    -2.6000    -1.9690 hc         1 9LS       0.045450
     48 H18          3.6420    -2.0920    -3.6190 hc         1 9LS       0.045450
     49 H19          1.4760    -1.1170    -2.9640 hc         1 9LS       0.044200
     50 H20          2.7790    -0.4300    -2.0040 hc         1 9LS       0.044200
     51 H21          0.0810     0.8880    -3.1270 ha         1 9LS       0.131000
     52 H22         -2.0040     1.1100    -4.4010 ha         1 9LS       0.136000
     53 H23         -1.7260     2.9130     0.1930 ha         1 9LS       0.131000
     54 N9          -1.5350    -1.2240     0.7570 ns         1 9LS      -0.147000
     55 CL26        -4.5000     2.2930    -3.7140 cl         1 9LS      -0.191000
     56 H6          -5.4550    -0.4490     2.9080 ha         1 9LS       0.134000
     57 F23         -3.8330     0.1700     0.9900 f          1 9LS      -0.183000
     58 H10         -1.9490    -0.9690    -0.1260 hn         1 9LS       0.165000
@<TRIPOS>BOND
     1     1     3 1   
     2     1     6 1   
     3     1    25 1   
     4     2     4 1   
     5     2    25 2   
     6     3     4 ar  
     7     3     7 ar  
     8     4     8 ar  
     9     5     6 1   
    10     5    19 2   
    11     5    54 1   
    12     6    10 1   
    13     6    33 1   
    14     7    27 ar  
    15     7    34 1   
    16     8     9 ar  
    17     8    35 1   
    18     9    26 1   
    19     9    27 ar  
    20    10    20 1   
    21    10    24 1   
    22    10    36 1   
    23    11    12 ar  
    24    11    31 ar  
    25    11    55 1   
    26    12    32 ar  
    27    12    37 1   
    28    13    14 ar  
    29    13    15 ar  
    30    13    56 1   
    31    14    18 ar  
    32    14    57 1   
    33    15    16 ar  
    34    15    38 1   
    35    16    17 ar  
    36    16    39 1   
    37    17    18 ar  
    38    17    40 1   
    39    18    54 1   
    40    20    21 1   
    41    20    41 1   
    42    20    42 1   
    43    21    22 1   
    44    21    43 1   
    45    21    44 1   
    46    22    23 1   
    47    22    45 1   
    48    22    46 1   
    49    23    24 1   
    50    23    47 1   
    51    23    48 1   
    52    24    49 1   
    53    24    50 1   
    54    25    29 1   
    55    27    28 1   
    56    29    30 ar  
    57    29    32 ar  
    58    30    31 ar  
    59    30    51 1   
    60    31    52 1   
    61    32    53 1   
    62    54    58 1   
@<TRIPOS>SUBSTRUCTURE
     1 9LS         1 TEMP              0 ****  ****    0 ROOT
