@<TRIPOS>MOLECULE
9LS
   58    62     1     0     0
SMALL
No Charge or Current Charge


@<TRIPOS>ATOM
      1 N1           1.1480     0.4870    -0.2550 na         1 9LS      -0.168600
      2 N3           1.0320     2.7830     0.0170 nc         1 9LS      -0.547100
      3 C4           2.1580     0.8870     0.5920 ca         1 9LS      -0.054200
      4 C5           2.0840     2.2480     0.7300 ca         1 9LS       0.070400
      5 C6          -0.0070    -1.3750     0.9420 c          1 9LS       0.592100
      6 C7           0.6300    -0.9040    -0.3870 c3         1 9LS       0.014300
      7 C8           3.1410     0.1310     1.2580 ca         1 9LS      -0.112000
      8 C10          2.9940     2.9470     1.5350 ca         1 9LS      -0.071000
      9 C13          3.9950     2.2200     2.2070 ca         1 9LS       0.115000
     10 C17          1.5880    -1.9550    -1.0590 c6         1 9LS      -0.065700
     11 C22         -3.1070     2.1350    -2.8980 ca         1 9LS       0.131000
     12 C24         -2.9400     2.8720    -1.7160 ca         1 9LS      -0.107000
     13 C28         -4.6360    -1.0220     2.8250 ca         1 9LS      -0.131000
     14 C16         -3.6300    -0.8140     1.8680 ca         1 9LS       0.135000
     15 C32         -4.3620    -1.7760     3.9770 ca         1 9LS      -0.095000
     16 C31         -3.0800    -2.3190     4.1660 ca         1 9LS      -0.107000
     17 C27         -2.0700    -2.1100     3.2080 ca         1 9LS      -0.085000
     18 C14         -2.3370    -1.3500     2.0460 ca         1 9LS      -0.076000
     19 O15          0.6380    -1.9430     1.8160 o          1 9LS      -0.557100
     20 C29          0.8150    -3.2460    -1.4640 c6         1 9LS      -0.073900
     21 C33          1.7560    -4.3010    -2.0980 c6         1 9LS      -0.073400
     22 C35          2.5120    -3.7180    -3.3160 c6         1 9LS      -0.076400
     23 C34          3.2870    -2.4370    -2.9260 c6         1 9LS      -0.073400
     24 C30          2.3460    -1.3820    -2.2950 c6         1 9LS      -0.073900
     25 C2           0.4840     1.6990    -0.5640 cd         1 9LS       0.463400
     26 F21          4.8830     2.8760     2.9900 f          1 9LS      -0.163000
     27 C11          4.0660     0.8150     2.0710 ca         1 9LS       0.146000
     28 F20          5.0230     0.1150     2.7230 f          1 9LS      -0.162000
     29 C12         -0.7570     1.8230    -1.3570 ca         1 9LS      -0.124900
     30 C18         -0.9220     1.1160    -2.5690 ca         1 9LS      -0.074500
     31 C25         -2.0960     1.2630    -3.3290 ca         1 9LS      -0.107000
     32 C19         -1.7660     2.7270    -0.9560 ca         1 9LS      -0.074500
     33 H1          -0.2150    -0.8430    -1.0810 h1         1 9LS       0.075700
     34 H2           3.2030    -0.9470     1.1720 ha         1 9LS       0.149000
     35 H3           2.9270     4.0260     1.6400 ha         1 9LS       0.151000
     36 H4           2.3360    -2.2430    -0.3110 hc         1 9LS       0.074700
     37 H5          -3.7180     3.5580    -1.3900 ha         1 9LS       0.136000
     38 H7          -5.1390    -1.9400     4.7210 ha         1 9LS       0.122000
     39 H8          -2.8670    -2.9050     5.0580 ha         1 9LS       0.123000
     40 H9          -1.0950    -2.5520     3.3880 ha         1 9LS       0.136000
     41 H11          0.3240    -3.6890    -0.5870 hc         1 9LS       0.044200
     42 H12          0.0150    -2.9970    -2.1750 hc         1 9LS       0.044200
     43 H13          2.4780    -4.6520    -1.3470 hc         1 9LS       0.045450
     44 H14          1.1750    -5.1800    -2.4070 hc         1 9LS       0.045450
     45 H15          3.2070    -4.4680    -3.7180 hc         1 9LS       0.042200
     46 H16          1.7990    -3.4890    -4.1200 hc         1 9LS       0.042200
     47 H17          4.0880    -2.6900    -2.2170 hc         1 9LS       0.045450
     48 H18          3.7790    -2.0150    -3.8130 hc         1 9LS       0.045450
     49 H19          1.6280    -1.0400    -3.0530 hc         1 9LS       0.044200
     50 H20          2.9410    -0.5040    -2.0090 hc         1 9LS       0.044200
     51 H21         -0.1370     0.4600    -2.9360 ha         1 9LS       0.131000
     52 H22         -2.2190     0.7090    -4.2560 ha         1 9LS       0.136000
     53 H23         -1.6500     3.3070    -0.0420 ha         1 9LS       0.131000
     54 N9          -1.3660    -1.0980     1.0340 ns         1 9LS      -0.147000
     55 Cl26        -4.5740     2.3190    -3.8490 cl         1 9LS      -0.191000
     56 H6          -5.6260    -0.5990     2.6710 ha         1 9LS       0.134000
     57 F23         -3.9130    -0.0830     0.7650 f          1 9LS      -0.183000
     58 H10         -1.7440    -0.6120     0.2300 hn         1 9LS       0.165000
@<TRIPOS>BOND
     1     1     3 1   
     2     1     6 1   
     3     1    25 1   
     4     2     4 1   
     5     2    25 2   
     6     3     4 ar  
     7     3     7 ar  
     8     4     8 ar  
     9     5     6 1   
    10     5    19 2   
    11     5    54 1   
    12     6    10 1   
    13     6    33 1   
    14     7    27 ar  
    15     7    34 1   
    16     8     9 ar  
    17     8    35 1   
    18     9    26 1   
    19     9    27 ar  
    20    10    20 1   
    21    10    24 1   
    22    10    36 1   
    23    11    12 ar  
    24    11    31 ar  
    25    11    55 1   
    26    12    32 ar  
    27    12    37 1   
    28    13    14 ar  
    29    13    15 ar  
    30    13    56 1   
    31    14    18 ar  
    32    14    57 1   
    33    15    16 ar  
    34    15    38 1   
    35    16    17 ar  
    36    16    39 1   
    37    17    18 ar  
    38    17    40 1   
    39    18    54 1   
    40    20    21 1   
    41    20    41 1   
    42    20    42 1   
    43    21    22 1   
    44    21    43 1   
    45    21    44 1   
    46    22    23 1   
    47    22    45 1   
    48    22    46 1   
    49    23    24 1   
    50    23    47 1   
    51    23    48 1   
    52    24    49 1   
    53    24    50 1   
    54    25    29 1   
    55    27    28 1   
    56    29    30 ar  
    57    29    32 ar  
    58    30    31 ar  
    59    30    51 1   
    60    31    52 1   
    61    32    53 1   
    62    54    58 1   
@<TRIPOS>SUBSTRUCTURE
     1 9LS         1 TEMP              0 ****  ****    0 ROOT
