@<TRIPOS>MOLECULE
9LT
   51    54     1     0     0
SMALL
bcc


@<TRIPOS>ATOM
      1 CAA         -5.3860     3.2270     0.6140 c3         1 9LT      -0.113100
      2 CAB          4.9960    -2.6780     0.8690 c3         1 9LT       0.025600
      3 CAG          4.9620     2.1480     1.8000 ca         1 9LT      -0.106000
      4 CAH          3.2570    -2.8350    -2.2650 cc         1 9LT       0.299200
      5 CAI          5.3710     2.7390     0.6130 ca         1 9LT      -0.160000
      6 CAJ          4.1260     1.0400     1.7850 ca         1 9LT      -0.131000
      7 CAK         -1.2250     0.9920     0.2440 ca         1 9LT      -0.098000
      8 CAL         -2.4900     1.4800    -0.0240 ca         1 9LT      -0.153000
      9 CAM          4.2510    -3.2910    -1.4500 cd         1 9LT      -0.254600
     10 CAN          4.0990     1.0890    -0.6210 ca         1 9LT      -0.153000
     11 CAO         -2.0800    -1.2420     0.2440 ca         1 9LT      -0.089000
     12 CAP         -5.1050     2.4960    -0.6870 c3         1 9LT       0.091000
     13 CAU          4.9260     2.1920    -0.5750 ca         1 9LT       0.133900
     14 CAV         -1.0040    -0.3770     0.3690 ca         1 9LT      -0.138600
     15 CAW          3.6920     0.5070     0.5770 ca         1 9LT      -0.087300
     16 CAX          3.1280    -1.6920    -0.4730 cd         1 9LT       0.372800
     17 CAY         -5.6840    -1.2620    -0.3920 c          1 9LT       0.635500
     18 CAZ         -5.9290     0.2310    -0.5420 c          1 9LT       0.624500
     19 CBA         -3.3470    -0.7570    -0.0350 ca         1 9LT       0.019600
     20 CBB         -3.5710     0.6160    -0.1860 ca         1 9LT       0.060600
     21 CBC          2.7450    -0.6750     0.5640 c3         1 9LT       0.141700
     22 FAF          5.3140     2.7520    -1.7320 f          1 9LT      -0.139900
     23 NAQ          2.5630    -1.8350    -1.6450 nc         1 9LT      -0.673000
     24 NAR          1.3980    -0.1990     0.3550 ns         1 9LT      -0.546900
     25 NAS         -4.4090    -1.6310    -0.1660 ns         1 9LT      -0.453100
     26 NBD          4.1590    -2.5500    -0.3050 na         1 9LT      -0.171900
     27 NBE         -4.8540     1.0660    -0.4870 n          1 9LT      -0.362000
     28 OAC          0.4470    -2.0600     1.1970 o          1 9LT      -0.595100
     29 OAE         -7.0640     0.6140    -0.7250 o          1 9LT      -0.559500
     30 H1          -5.5500     4.2850     0.4080 hc         1 9LT       0.047700
     31 H2          -6.2790     2.8370     1.1000 hc         1 9LT       0.047700
     32 H3          -4.5540     3.1480     1.3140 hc         1 9LT       0.047700
     33 H4           4.4150    -3.0100     1.7280 h1         1 9LT       0.055700
     34 H5           5.7690    -3.4140     0.6730 h1         1 9LT       0.055700
     35 H6           5.4760    -1.7300     1.1080 h1         1 9LT       0.055700
     36 H8           3.0060    -3.1740    -3.2580 h4         1 9LT       0.039100
     37 H9           6.0250     3.6020     0.6110 ha         1 9LT       0.153000
     38 H10          3.8150     0.5860     2.7170 ha         1 9LT       0.140000
     39 H11         -0.4240     1.7060     0.3820 ha         1 9LT       0.139000
     40 H12         -2.6170     2.5500    -0.0940 ha         1 9LT       0.145000
     41 H13          4.9960    -4.0600    -1.5740 h4         1 9LT       0.175000
     42 H14          3.7800     0.6880    -1.5760 ha         1 9LT       0.169000
     43 H15         -1.9380    -2.3100     0.3550 ha         1 9LT       0.163000
     44 H16         -5.9480     2.5900    -1.3660 h1         1 9LT       0.065200
     45 H17         -4.2480     2.9210    -1.2050 h1         1 9LT       0.065200
     46 H18          2.7790    -1.1470     1.5500 h1         1 9LT       0.083700
     47 H19          1.2760     0.5870    -0.2630 hn         1 9LT       0.326500
     48 H20         -4.2270    -2.6220    -0.0660 hn         1 9LT       0.337500
     49 OAD         -6.6090    -2.0370    -0.4840 o          1 9LT      -0.560500
     50 CAT          0.3330    -0.9620     0.6740 c          1 9LT       0.690700
     51 H7           5.2990     2.5570     2.7430 ha         1 9LT       0.139000
@<TRIPOS>BOND
     1     1    12 1   
     2     1    30 1   
     3     1    31 1   
     4     1    32 1   
     5     2    26 1   
     6     2    33 1   
     7     2    34 1   
     8     2    35 1   
     9     3     5 ar  
    10     3     6 ar  
    11     3    51 1   
    12     4     9 2   
    13     4    23 1   
    14     4    36 1   
    15     5    13 ar  
    16     5    37 1   
    17     6    15 ar  
    18     6    38 1   
    19     7     8 ar  
    20     7    14 ar  
    21     7    39 1   
    22     8    20 ar  
    23     8    40 1   
    24     9    26 1   
    25     9    41 1   
    26    10    13 ar  
    27    10    15 ar  
    28    10    42 1   
    29    11    14 ar  
    30    11    19 ar  
    31    11    43 1   
    32    12    27 1   
    33    12    44 1   
    34    12    45 1   
    35    13    22 1   
    36    14    50 1   
    37    15    21 1   
    38    16    21 1   
    39    16    23 2   
    40    16    26 1   
    41    17    18 1   
    42    17    25 1   
    43    17    49 2   
    44    18    27 1   
    45    18    29 2   
    46    19    20 ar  
    47    19    25 1   
    48    20    27 1   
    49    21    24 1   
    50    21    46 1   
    51    24    47 1   
    52    24    50 1   
    53    25    48 1   
    54    28    50 2   
@<TRIPOS>SUBSTRUCTURE
     1 9LT         1 TEMP              0 ****  ****    0 ROOT
