@<TRIPOS>MOLECULE
9LT
   51    54     1     0     0
SMALL
No Charge or Current Charge


@<TRIPOS>ATOM
      1 CAA         -5.1940     3.5300    -0.0310 c3         1 9LT      -0.113100
      2 CAB          5.1880    -2.7610     0.6710 c3         1 9LT       0.054900
      3 CAG          5.0410     1.8760     2.1770 ca         1 9LT      -0.088000
      4 CAH          3.5170    -2.5980    -2.5390 cc         1 9LT       0.233900
      5 CAI          5.3180     2.7390     1.1030 ca         1 9LT      -0.142000
      6 CAJ          4.2190     0.7510     1.9800 ca         1 9LT      -0.113000
      7 CAK         -1.2390     0.7980    -0.1630 ca         1 9LT      -0.080000
      8 CAL         -2.5210     1.3170    -0.4110 ca         1 9LT      -0.135000
      9 CAM          4.4950    -3.1420    -1.7510 cd         1 9LT      -0.222000
     10 CAN          3.9510     1.3530    -0.3620 ca         1 9LT      -0.135000
     11 CAO         -2.2270    -1.3110     0.5070 ca         1 9LT      -0.071000
     12 CAP         -5.2140     2.3850    -1.0610 c3         1 9LT       0.091000
     13 CAU          4.7710     2.4740    -0.1620 ca         1 9LT       0.169000
     14 CAV         -1.0710    -0.5300     0.2930 ca         1 9LT      -0.138600
     15 CAW          3.6690     0.4800     0.7100 ca         1 9LT      -0.087300
     16 CAX          3.2790    -1.6540    -0.6220 cd         1 9LT       0.372800
     17 CAY         -5.9550    -1.2240     0.3820 c          1 9LT       0.493000
     18 CAZ         -6.1730     0.2630    -0.1550 c          1 9LT       0.482000
     19 CBA         -3.5090    -0.7910     0.2600 ca         1 9LT       0.019600
     20 CBB         -3.6770     0.5230    -0.2340 ca         1 9LT       0.060600
     21 CBC          2.7820    -0.7440     0.5000 c3         1 9LT       0.141700
     22 FAF          5.0360     3.3040    -1.1940 f          1 9LT      -0.175000
     23 NAQ          2.7740    -1.6810    -1.8530 nc         1 9LT      -0.673000
     24 NAR          1.3840    -0.3200     0.3360 ns         1 9LT      -0.479900
     25 NAS         -4.6380    -1.5900     0.5220 ns         1 9LT      -0.386100
     26 NBD          4.3510    -2.5320    -0.5160 na         1 9LT      -0.150500
     27 NBE         -5.0180     1.0450    -0.4430 n          1 9LT      -0.295000
     28 OAC          0.4330    -2.2690     0.9920 o          1 9LT      -0.595100
     29 OAE         -7.3110     0.7050    -0.3150 o          1 9LT      -0.484000
     30 H1          -5.3250     4.4960    -0.5330 hc         1 9LT       0.047700
     31 H2          -6.0070     3.4070     0.6950 hc         1 9LT       0.047700
     32 H3          -4.2450     3.5520     0.5180 hc         1 9LT       0.047700
     33 H4           4.5690    -3.1460     1.4910 h1         1 9LT       0.055700
     34 H5           5.9720    -3.4930     0.4400 h1         1 9LT       0.055700
     35 H6           5.6560    -1.8180     0.9800 h1         1 9LT       0.055700
     36 H8           3.3000    -2.8110    -3.5790 h4         1 9LT       0.039100
     37 H9           5.9520     3.6100     1.2480 ha         1 9LT       0.135000
     38 H10          4.0110     0.0910     2.8200 ha         1 9LT       0.122000
     39 H11         -0.3850     1.4500    -0.3280 ha         1 9LT       0.121000
     40 H12         -2.5890     2.3470    -0.7470 ha         1 9LT       0.127000
     41 H13          5.2520    -3.8830    -1.9750 h4         1 9LT       0.157000
     42 H14          3.5380     1.1650    -1.3500 ha         1 9LT       0.151000
     43 H15         -2.1300    -2.3300     0.8760 ha         1 9LT       0.145000
     44 H16         -6.1690     2.4140    -1.6020 h1         1 9LT       0.065200
     45 H17         -4.4410     2.5560    -1.8200 h1         1 9LT       0.065200
     46 H18          2.8250    -1.3420     1.4200 h1         1 9LT       0.083700
     47 H19          1.2040     0.6070    -0.0220 hn         1 9LT       0.326500
     48 H20         -4.4750    -2.5310     0.8620 hn         1 9LT       0.337500
     49 OAD         -6.8710    -1.9950     0.6530 o          1 9LT      -0.485000
     50 CAT          0.2950    -1.1270     0.5710 c          1 9LT       0.623700
     51 H7           5.4610     2.0770     3.1600 ha         1 9LT       0.121000
@<TRIPOS>BOND
     1     1    12 1   
     2     1    30 1   
     3     1    31 1   
     4     1    32 1   
     5     2    26 1   
     6     2    33 1   
     7     2    34 1   
     8     2    35 1   
     9     3     5 ar  
    10     3     6 ar  
    11     3    51 1   
    12     4     9 2   
    13     4    23 1   
    14     4    36 1   
    15     5    13 ar  
    16     5    37 1   
    17     6    15 ar  
    18     6    38 1   
    19     7     8 ar  
    20     7    14 ar  
    21     7    39 1   
    22     8    20 ar  
    23     8    40 1   
    24     9    26 1   
    25     9    41 1   
    26    10    13 ar  
    27    10    15 ar  
    28    10    42 1   
    29    11    14 ar  
    30    11    19 ar  
    31    11    43 1   
    32    12    27 1   
    33    12    44 1   
    34    12    45 1   
    35    13    22 1   
    36    14    50 1   
    37    15    21 1   
    38    16    21 1   
    39    16    23 2   
    40    16    26 1   
    41    17    18 1   
    42    17    25 1   
    43    17    49 2   
    44    18    27 1   
    45    18    29 2   
    46    19    20 ar  
    47    19    25 1   
    48    20    27 1   
    49    21    24 1   
    50    21    46 1   
    51    24    47 1   
    52    24    50 1   
    53    25    48 1   
    54    28    50 2   
@<TRIPOS>SUBSTRUCTURE
     1 9LT         1 TEMP              0 ****  ****    0 ROOT
