@<TRIPOS>MOLECULE
9LU
   60    63     1     0     0
SMALL
No Charge or Current Charge


@<TRIPOS>ATOM
      1 C4           5.2810     1.3750    -2.3320 c3         1 9LU      -0.052400
      2 C5           4.6860     1.7730    -0.9620 c3         1 9LU      -0.079400
      3 C6           3.5850     0.8060    -0.4760 c3         1 9LU      -0.082400
      4 C7           2.9950     1.2050     0.8900 c3         1 9LU       0.160600
      5 C10          1.4570     1.3350     3.3440 ca         1 9LU      -0.200000
      6 C13         -0.4920    -0.6330     3.8150 ca         1 9LU      -0.067000
      7 C15          0.0710    -1.7840     1.5770 c3         1 9LU       0.122900
      8 C17         -1.1090    -3.8230     2.5380 cc         1 9LU      -0.190300
      9 C21         -2.3400    -2.5730     1.1640 cc         1 9LU       0.456000
     10 C22         -2.7740    -1.5060     0.2450 ca         1 9LU      -0.111500
     11 C24         -4.0730    -0.8150    -1.7140 ca         1 9LU      -0.095500
     12 C26         -4.2190     1.5700    -2.4240 cc         1 9LU       0.189500
     13 C28         -4.5770     3.4820    -3.4910 cd         1 9LU      -0.186000
     14 C2           6.9300     1.8850    -4.1850 c          1 9LU       0.717000
     15 C3           6.3850     2.3440    -2.8200 c3         1 9LU      -0.206400
     16 O8           1.9900     0.2360     1.2280 os         1 9LU      -0.355100
     17 C9           1.2540     0.3070     2.3960 ca         1 9LU       0.164100
     18 C11          0.6890     1.3750     4.5180 ca         1 9LU      -0.069000
     19 C12         -0.2830     0.3920     4.7520 ca         1 9LU      -0.157000
     20 C14          0.2750    -0.6840     2.6280 ca         1 9LU      -0.156300
     21 N16         -1.0960    -2.6680     1.7770 na         1 9LU      -0.151500
     22 C19         -2.3410    -4.3880     2.3320 cd         1 9LU       0.223900
     23 N20         -3.0930    -3.6210     1.4720 nd         1 9LU      -0.673000
     24 C23         -3.6130    -1.8190    -0.8450 ca         1 9LU      -0.089000
     25 C25         -3.7270     0.5360    -1.5040 ca         1 9LU      -0.115500
     26 C27         -3.8590     2.8900    -2.4290 cd         1 9LU      -0.170000
     27 C29         -5.3310     2.4980    -4.0780 cc         1 9LU       0.119900
     28 O30         -5.1180     1.3010    -3.4290 os         1 9LU      -0.238000
     29 C31         -2.9250     0.8570    -0.3890 ca         1 9LU      -0.095500
     30 C32         -2.4650    -0.1490     0.4790 ca         1 9LU      -0.089000
     31 O33          7.8630     1.0960    -4.1980 o          1 9LU      -0.740500
     32 H1           5.6950     0.3620    -2.2630 hc         1 9LU       0.041700
     33 H2           4.4760     1.3400    -3.0770 hc         1 9LU       0.041700
     34 H3           5.4890     1.8070    -0.2160 hc         1 9LU       0.026700
     35 H4           4.2690     2.7860    -1.0310 hc         1 9LU       0.026700
     36 H5           2.7770     0.7730    -1.2180 hc         1 9LU       0.052700
     37 H6           3.9990    -0.2080    -0.4030 hc         1 9LU       0.052700
     38 H7           3.7920     1.2170     1.6440 h1         1 9LU       0.032700
     39 H8           2.5580     2.2100     0.8200 h1         1 9LU       0.032700
     40 H9           2.2030     2.1080     3.1880 ha         1 9LU       0.124000
     41 H10         -1.2530    -1.3810     4.0240 ha         1 9LU       0.124000
     42 H11         -0.0100    -1.3240     0.5840 h1         1 9LU       0.081700
     43 H12          0.9730    -2.4080     1.5510 h1         1 9LU       0.081700
     44 H13         -4.7040    -1.0940    -2.5550 ha         1 9LU       0.121000
     45 H14         -4.5420     4.5230    -3.7960 ha         1 9LU       0.140000
     46 H15          5.9050     3.3270    -2.9100 hc         1 9LU       0.014700
     47 H16          7.1750     2.3070    -2.0600 hc         1 9LU       0.014700
     48 H17          0.8470     2.1680     5.2470 ha         1 9LU       0.109000
     49 H18         -0.8770     0.4230     5.6620 ha         1 9LU       0.113000
     50 H19          0.8690    -4.6580     2.7530 hc         1 9LU       0.048367
     51 H20          0.4030    -3.5470     4.0570 hc         1 9LU       0.048367
     52 H21         -0.2800    -5.1810     3.9970 hc         1 9LU       0.048367
     53 H22         -2.7240    -5.3110     2.7510 h4         1 9LU       0.032100
     54 H23         -3.9000    -2.8520    -1.0320 ha         1 9LU       0.129500
     55 H24         -3.1630     3.3860    -1.7620 ha         1 9LU       0.143000
     56 H25         -6.0190     2.5080    -4.9140 h4         1 9LU       0.049100
     57 H26         -2.6610     1.8880    -0.1730 ha         1 9LU       0.121000
     58 H27         -1.8850     0.1440     1.3480 ha         1 9LU       0.129500
     59 O1           6.3740     2.2910    -5.1940 o          1 9LU      -0.740500
     60 C18          0.0330    -4.3280     3.3820 c3         1 9LU      -0.019800
@<TRIPOS>BOND
     1     1     2 1   
     2     1    15 1   
     3     1    32 1   
     4     1    33 1   
     5     2     3 1   
     6     2    34 1   
     7     2    35 1   
     8     3     4 1   
     9     3    36 1   
    10     3    37 1   
    11     4    16 1   
    12     4    38 1   
    13     4    39 1   
    14     5    17 ar  
    15     5    18 ar  
    16     5    40 1   
    17     6    19 ar  
    18     6    20 ar  
    19     6    41 1   
    20     7    20 1   
    21     7    21 1   
    22     7    42 1   
    23     7    43 1   
    24     8    21 1   
    25     8    22 2   
    26     8    60 1   
    27     9    10 1   
    28     9    21 1   
    29     9    23 2   
    30    10    24 ar  
    31    10    30 ar  
    32    11    24 ar  
    33    11    25 ar  
    34    11    44 1   
    35    12    25 1   
    36    12    26 2   
    37    12    28 1   
    38    13    26 1   
    39    13    27 2   
    40    13    45 1   
    41    14    15 1   
    42    14    31 1   
    43    14    59 1   
    44    15    46 1   
    45    15    47 1   
    46    16    17 1   
    47    17    20 ar  
    48    18    19 ar  
    49    18    48 1   
    50    19    49 1   
    51    22    23 1   
    52    22    53 1   
    53    24    54 1   
    54    25    29 ar  
    55    26    55 1   
    56    27    28 1   
    57    27    56 1   
    58    29    30 ar  
    59    29    57 1   
    60    30    58 1   
    61    50    60 1   
    62    51    60 1   
    63    52    60 1   
@<TRIPOS>SUBSTRUCTURE
     1 9LU         1 TEMP              0 ****  ****    0 ROOT
