@<TRIPOS>MOLECULE
9LU
   60    63     1     0     0
SMALL
abcg2


@<TRIPOS>ATOM
      1 C4           5.4920     1.2570    -2.1820 c3         1 9LU      -0.052400
      2 C5           4.8620     1.5680    -0.8290 c3         1 9LU      -0.079400
      3 C6           3.7040     0.6390    -0.4810 c3         1 9LU      -0.082400
      4 C7           3.1070     0.9960     0.8630 c3         1 9LU       0.160600
      5 C10          1.5800     1.2400     3.2250 ca         1 9LU      -0.200000
      6 C13         -0.5210    -0.5310     3.5850 ca         1 9LU      -0.067000
      7 C15          0.0180    -1.6750     1.3770 c3         1 9LU       0.122900
      8 C17         -1.0440    -3.6740     2.4140 cc         1 9LU      -0.190300
      9 C21         -2.3880    -2.4290     1.1830 cc         1 9LU       0.456000
     10 C22         -2.8930    -1.3760     0.3010 ca         1 9LU      -0.111500
     11 C24         -4.3840    -0.7610    -1.5050 ca         1 9LU      -0.095500
     12 C26         -4.5080     1.5890    -2.3150 cc         1 9LU       0.189500
     13 C28         -5.0900     3.3740    -3.5230 cd         1 9LU      -0.186000
     14 C2           7.3360     1.9680    -3.8660 c          1 9LU       0.717000
     15 C3           6.6440     2.1920    -2.5100 c3         1 9LU      -0.206400
     16 O8           2.0280     0.1120     1.1320 os         1 9LU      -0.355100
     17 C9           1.3200     0.2670     2.2650 ca         1 9LU       0.164100
     18 C11          0.7860     1.3190     4.3630 ca         1 9LU      -0.069000
     19 C12         -0.2650     0.4390     4.5490 ca         1 9LU      -0.157000
     20 C14          0.2590    -0.6340     2.4430 ca         1 9LU      -0.156300
     21 N16         -1.1110    -2.5330     1.6520 na         1 9LU      -0.151500
     22 C19         -2.3000    -4.2090     2.3610 cd         1 9LU       0.223900
     23 N20         -3.1190    -3.4380     1.5960 nd         1 9LU      -0.673000
     24 C23         -3.8520    -1.7140    -0.6560 ca         1 9LU      -0.089000
     25 C25         -3.9740     0.5740    -1.4250 ca         1 9LU      -0.115500
     26 C27         -4.2400     2.9160    -2.4780 cd         1 9LU      -0.170000
     27 C29         -5.8100     2.2980    -3.9180 cc         1 9LU       0.119900
     28 O30         -5.4650     1.2160    -3.1930 os         1 9LU      -0.238000
     29 C31         -3.0280     0.9150    -0.4570 ca         1 9LU      -0.095500
     30 C32         -2.5000    -0.0390     0.3930 ca         1 9LU      -0.089000
     31 O33          8.2920     2.7310    -4.1220 o          1 9LU      -0.740500
     32 H1           5.8410     0.2200    -2.1870 hc         1 9LU       0.041700
     33 H2           4.7270     1.3220    -2.9600 hc         1 9LU       0.041700
     34 H3           5.6280     1.5040    -0.0480 hc         1 9LU       0.026700
     35 H4           4.5100     2.6050    -0.8240 hc         1 9LU       0.026700
     36 H5           2.9330     0.7060    -1.2540 hc         1 9LU       0.052700
     37 H6           4.0530    -0.3980    -0.4660 hc         1 9LU       0.052700
     38 H7           3.8660     0.9140     1.6490 h1         1 9LU       0.032700
     39 H8           2.7510     2.0320     0.8530 h1         1 9LU       0.032700
     40 H9           2.3950     1.9410     3.1030 ha         1 9LU       0.124000
     41 H10         -1.3480    -1.2150     3.7320 ha         1 9LU       0.124000
     42 H11         -0.1290    -1.2100     0.4020 h1         1 9LU       0.081700
     43 H12          0.9010    -2.3080     1.2680 h1         1 9LU       0.081700
     44 H13         -5.1160    -1.0690    -2.2390 ha         1 9LU       0.121000
     45 H14         -5.1550     4.3720    -3.9250 ha         1 9LU       0.140000
     46 H15          6.2950     3.2310    -2.4750 hc         1 9LU       0.014700
     47 H16          7.4060     2.1260    -1.7240 hc         1 9LU       0.014700
     48 H17          0.9990     2.0790     5.1040 ha         1 9LU       0.109000
     49 H18         -0.8860     0.4990     5.4320 ha         1 9LU       0.113000
     50 H19          1.0050    -4.3160     2.3810 hc         1 9LU       0.048367
     51 H20          0.5570    -3.4230     3.8290 hc         1 9LU       0.048367
     52 H21         -0.0040    -5.0770     3.6040 hc         1 9LU       0.048367
     53 H22         -2.6470    -5.1120     2.8400 h4         1 9LU       0.032100
     54 H23         -4.1780    -2.7410    -0.7420 ha         1 9LU       0.129500
     55 H24         -3.5200     3.5010    -1.9290 ha         1 9LU       0.143000
     56 H25         -6.5720     2.1550    -4.6680 h4         1 9LU       0.049100
     57 H26         -2.7010     1.9420    -0.3520 ha         1 9LU       0.121000
     58 H27         -1.7990     0.2820     1.1520 ha         1 9LU       0.129500
     59 O1           6.9030     1.0590    -4.6010 o          1 9LU      -0.740500
     60 C18          0.1930    -4.1380     3.0890 c3         1 9LU      -0.019800
@<TRIPOS>BOND
     1     1     2 1   
     2     1    15 1   
     3     1    32 1   
     4     1    33 1   
     5     2     3 1   
     6     2    34 1   
     7     2    35 1   
     8     3     4 1   
     9     3    36 1   
    10     3    37 1   
    11     4    16 1   
    12     4    38 1   
    13     4    39 1   
    14     5    17 ar  
    15     5    18 ar  
    16     5    40 1   
    17     6    19 ar  
    18     6    20 ar  
    19     6    41 1   
    20     7    20 1   
    21     7    21 1   
    22     7    42 1   
    23     7    43 1   
    24     8    21 1   
    25     8    22 2   
    26     8    60 1   
    27     9    10 1   
    28     9    21 1   
    29     9    23 2   
    30    10    24 ar  
    31    10    30 ar  
    32    11    24 ar  
    33    11    25 ar  
    34    11    44 1   
    35    12    25 1   
    36    12    26 2   
    37    12    28 1   
    38    13    26 1   
    39    13    27 2   
    40    13    45 1   
    41    14    15 1   
    42    14    31 1   
    43    14    59 1   
    44    15    46 1   
    45    15    47 1   
    46    16    17 1   
    47    17    20 ar  
    48    18    19 ar  
    49    18    48 1   
    50    19    49 1   
    51    22    23 1   
    52    22    53 1   
    53    24    54 1   
    54    25    29 ar  
    55    26    55 1   
    56    27    28 1   
    57    27    56 1   
    58    29    30 ar  
    59    29    57 1   
    60    30    58 1   
    61    50    60 1   
    62    51    60 1   
    63    52    60 1   
@<TRIPOS>SUBSTRUCTURE
     1 9LU         1 TEMP              0 ****  ****    0 ROOT
