@<TRIPOS>MOLECULE
9LV
   57    61     1     0     0
SMALL
abcg2


@<TRIPOS>ATOM
      1 C4           0.1550     0.0630    -0.6190 c5         1 9LV      -0.075700
      2 C5          -0.5850    -1.2040    -0.2990 ca         1 9LV      -0.154300
      3 C6          -1.8370    -1.1660    -0.9050 ca         1 9LV       0.005000
      4 C7           5.1380     1.3460     0.0200 ca         1 9LV      -0.262500
      5 C10          0.4350     0.8730     0.6590 c6         1 9LV      -0.054900
      6 C15         -2.7380    -2.2040    -0.7710 ca         1 9LV      -0.130000
      7 C17         -0.2040    -2.2880     0.4590 ca         1 9LV      -0.035000
      8 C20          1.3020     2.0990     0.4280 c6         1 9LV       0.216300
      9 C21         -6.3640     1.6730     0.2770 ca         1 9LV      -0.118600
     10 C24         -6.5510     0.6310    -0.6250 ca         1 9LV      -0.089500
     11 C26         -4.2780     0.8390    -1.4150 ca         1 9LV      -0.159300
     12 O28         -8.5820     1.5360     1.0750 o          1 9LV      -0.716500
     13 O22         -7.2310     3.0620     1.9780 o          1 9LV      -0.716500
     14 C23         -5.1150     2.2920     0.3190 ca         1 9LV      -0.089500
     15 C32         -4.0860     1.8850    -0.5150 ca         1 9LV      -0.126500
     16 N2          -1.9720     0.0180    -1.6210 n          1 9LV      -0.201400
     17 C3          -0.8500     0.7910    -1.5140 c          1 9LV       0.568000
     18 O16         -0.7070     1.8750    -2.0400 o          1 9LV      -0.528000
     19 N8           2.5230     1.6960    -0.2670 n3         1 9LV      -0.772500
     20 C19          2.3230     1.0330    -1.5540 c6         1 9LV       0.216300
     21 C9           1.4770    -0.2120    -1.3500 c6         1 9LV      -0.054900
     22 S1           3.8820     2.5990    -0.1120 sy         1 9LV       1.180600
     23 O12          3.8040     3.3330     1.1390 o          1 9LV      -0.543000
     24 O13          4.1640     3.3470    -1.3300 o          1 9LV      -0.543000
     25 C30          6.1430     1.3170    -0.9390 ca         1 9LV      -0.013000
     26 C35          7.1560     0.3740    -0.8590 ca         1 9LV      -0.136000
     27 C36          7.1660    -0.5400     0.1820 ca         1 9LV      -0.056000
     28 C34          6.1670    -0.5180     1.1440 ca         1 9LV      -0.131000
     29 C18          5.1540     0.4240     1.0660 ca         1 9LV       0.213000
     30 CL29         3.9360     0.4080     2.2860 cl         1 9LV      -0.162000
     31 C25         -1.1100    -3.3390     0.5960 ca         1 9LV      -0.058900
     32 BR33        -0.6200    -4.8430     1.6300 br         1 9LV      -0.117100
     33 C27         -2.3580    -3.3050    -0.0060 ca         1 9LV      -0.048000
     34 C31         -5.5200     0.2170    -1.4580 ca         1 9LV      -0.126500
     35 H1          -0.5020     1.1830     1.1290 hc         1 9LV       0.058700
     36 H2           0.9420     0.2130     1.3670 hc         1 9LV       0.058700
     37 H3          -3.7150    -2.1890    -1.2360 ha         1 9LV       0.142000
     38 H4           0.7690    -2.3210     0.9340 ha         1 9LV       0.127000
     39 H5           0.7630     2.8620    -0.1380 h1         1 9LV       0.064700
     40 H6           1.5610     2.5220     1.3960 h1         1 9LV       0.064700
     41 H7          -7.5110     0.1350    -0.6730 ha         1 9LV       0.130000
     42 H9          -4.9520     3.1070     1.0120 ha         1 9LV       0.130000
     43 H10         -3.1320     2.3980    -0.4690 ha         1 9LV       0.086500
     44 H11         -3.4980    -0.4470    -2.9450 h1         1 9LV       0.056200
     45 H12         -2.9010     1.1980    -3.0260 h1         1 9LV       0.056200
     46 H13          1.8650     1.7110    -2.2770 h1         1 9LV       0.064700
     47 H14          3.2860     0.7220    -1.9610 h1         1 9LV       0.064700
     48 H15          2.0480    -0.9260    -0.7500 hc         1 9LV       0.058700
     49 H16          1.2910    -0.6820    -2.3180 hc         1 9LV       0.058700
     50 H17          6.1360     2.0290    -1.7510 ha         1 9LV       0.146000
     51 H18          7.9330     0.3570    -1.6110 ha         1 9LV       0.120000
     52 H19          7.9520    -1.2800     0.2530 ha         1 9LV       0.116000
     53 H20          6.1730    -1.2330     1.9560 ha         1 9LV       0.130000
     54 H21         -3.0510    -4.1260     0.1110 ha         1 9LV       0.128000
     55 H22         -5.6830    -0.6010    -2.1510 ha         1 9LV       0.086500
     56 C14         -3.1690     0.3980    -2.3360 c3         1 9LV       0.160300
     57 C11         -7.4930     2.1310     1.1920 c          1 9LV       0.710600
@<TRIPOS>BOND
     1     1     2 1   
     2     1     5 1   
     3     1    17 1   
     4     1    21 1   
     5     2     3 ar  
     6     2     7 ar  
     7     3     6 ar  
     8     3    16 1   
     9     4    22 1   
    10     4    25 ar  
    11     4    29 ar  
    12     5     8 1   
    13     5    35 1   
    14     5    36 1   
    15     6    33 ar  
    16     6    37 1   
    17     7    31 ar  
    18     7    38 1   
    19     8    19 1   
    20     8    39 1   
    21     8    40 1   
    22     9    10 ar  
    23     9    14 ar  
    24     9    57 1   
    25    10    34 ar  
    26    10    41 1   
    27    11    15 ar  
    28    11    34 ar  
    29    11    56 1   
    30    12    57 1   
    31    13    57 1   
    32    14    15 ar  
    33    14    42 1   
    34    15    43 1   
    35    16    17 1   
    36    16    56 1   
    37    17    18 2   
    38    19    20 1   
    39    19    22 1   
    40    20    21 1   
    41    20    46 1   
    42    20    47 1   
    43    21    48 1   
    44    21    49 1   
    45    22    23 2   
    46    22    24 2   
    47    25    26 ar  
    48    25    50 1   
    49    26    27 ar  
    50    26    51 1   
    51    27    28 ar  
    52    27    52 1   
    53    28    29 ar  
    54    28    53 1   
    55    29    30 1   
    56    31    32 1   
    57    31    33 ar  
    58    33    54 1   
    59    34    55 1   
    60    44    56 1   
    61    45    56 1   
@<TRIPOS>SUBSTRUCTURE
     1 9LV         1 TEMP              0 ****  ****    0 ROOT
