@<TRIPOS>MOLECULE
9LV
   57    61     1     0     0
SMALL
No Charge or Current Charge


@<TRIPOS>ATOM
      1 C4           0.0530    -0.1700    -0.2180 c5         1 9LV      -0.075700
      2 C5          -0.8610    -1.3680     0.0260 ca         1 9LV      -0.154300
      3 C6          -1.9910    -1.2850    -0.7630 ca         1 9LV       0.005000
      4 C7           5.2700     1.5180    -0.0180 ca         1 9LV      -0.262500
      5 C10          0.2420     0.6440     1.0950 c6         1 9LV      -0.054900
      6 C15         -2.9350    -2.3210    -0.8150 ca         1 9LV      -0.130000
      7 C17         -0.6640    -2.4660     0.8790 ca         1 9LV      -0.035000
      8 C20          1.2660     1.7940     0.9330 c6         1 9LV       0.216300
      9 C21         -6.3480     1.9680    -0.1700 ca         1 9LV      -0.118600
     10 C24         -6.5010     0.8070    -0.9640 ca         1 9LV      -0.089500
     11 C26         -4.1600     0.9140    -1.6490 ca         1 9LV      -0.159300
     12 O28         -8.5990     1.9600     0.5590 o          1 9LV      -0.716500
     13 O22         -7.3420     3.5390     1.2940 o          1 9LV      -0.716500
     14 C23         -5.0790     2.5930    -0.1320 ca         1 9LV      -0.089500
     15 C32         -3.9990     2.0710    -0.8650 ca         1 9LV      -0.126500
     16 N2          -1.8880    -0.1350    -1.5750 n          1 9LV      -0.201400
     17 C3          -0.7300     0.6270    -1.3310 c          1 9LV       0.568000
     18 O16         -0.4420     1.6840    -1.8800 o          1 9LV      -0.528000
     19 N8           2.5800     1.2840     0.4680 n3         1 9LV      -0.772500
     20 C19          2.4630     0.5360    -0.8110 c6         1 9LV       0.216300
     21 C9           1.4630    -0.6390    -0.6820 c6         1 9LV      -0.054900
     22 S1           3.8200     2.4480     0.5090 sy         1 9LV       1.180600
     23 O12          3.9990     2.7960     1.9230 o          1 9LV      -0.543000
     24 O13          3.4830     3.4640    -0.4950 o          1 9LV      -0.543000
     25 C30          5.9210     1.8850    -1.2170 ca         1 9LV      -0.013000
     26 C35          7.0500     1.1740    -1.6580 ca         1 9LV      -0.136000
     27 C36          7.5380     0.0920    -0.9100 ca         1 9LV      -0.056000
     28 C34          6.8920    -0.2790     0.2800 ca         1 9LV      -0.131000
     29 C18          5.7620     0.4250     0.7320 ca         1 9LV       0.213000
     30 Cl29         5.0070    -0.1360     2.2270 cl         1 9LV      -0.162000
     31 C25         -1.6300    -3.4930     0.8880 ca         1 9LV      -0.058900
     32 Br33        -1.3930    -5.0050     2.0340 br         1 9LV      -0.117100
     33 C27         -2.7570    -3.4280     0.0390 ca         1 9LV      -0.048000
     34 C31         -5.4190     0.2880    -1.6950 ca         1 9LV      -0.126500
     35 H1          -0.7230     1.0530     1.4250 hc         1 9LV       0.058700
     36 H2           0.5860    -0.0200     1.8990 hc         1 9LV       0.058700
     37 H3          -3.7890    -2.2740    -1.4860 ha         1 9LV       0.142000
     38 H4           0.2180    -2.5320     1.5110 ha         1 9LV       0.127000
     39 H5           0.8710     2.5460     0.2340 h1         1 9LV       0.064700
     40 H6           1.3700     2.2940     1.9080 h1         1 9LV       0.064700
     41 H7          -7.4630     0.3020    -1.0170 ha         1 9LV       0.130000
     42 H9          -4.9260     3.4880     0.4670 ha         1 9LV       0.130000
     43 H10         -3.0340     2.5690    -0.8190 ha         1 9LV       0.086500
     44 H11         -3.3200    -0.4860    -3.0640 h1         1 9LV       0.056200
     45 H12         -2.6000     1.1210    -3.1130 h1         1 9LV       0.056200
     46 H13          2.1460     1.2040    -1.6250 h1         1 9LV       0.064700
     47 H14          3.4320     0.1110    -1.1120 h1         1 9LV       0.064700
     48 H15          1.8700    -1.3660     0.0340 hc         1 9LV       0.058700
     49 H16          1.3850    -1.1650    -1.6440 hc         1 9LV       0.058700
     50 H17          5.5590     2.7210    -1.8150 ha         1 9LV       0.146000
     51 H18          7.5460     1.4630    -2.5810 ha         1 9LV       0.120000
     52 H19          8.4110    -0.4590    -1.2520 ha         1 9LV       0.116000
     53 H20          7.2670    -1.1210     0.8560 ha         1 9LV       0.130000
     54 H21         -3.4840    -4.2360     0.0360 ha         1 9LV       0.128000
     55 H22         -5.5640    -0.6060    -2.2980 ha         1 9LV       0.086500
     56 C14         -2.9820     0.3470    -2.4360 c3         1 9LV       0.160300
     57 C11         -7.5190     2.5320     0.6220 c          1 9LV       0.710600
@<TRIPOS>BOND
     1     1     2 1   
     2     1     5 1   
     3     1    17 1   
     4     1    21 1   
     5     2     3 ar  
     6     2     7 ar  
     7     3     6 ar  
     8     3    16 1   
     9     4    22 1   
    10     4    25 ar  
    11     4    29 ar  
    12     5     8 1   
    13     5    35 1   
    14     5    36 1   
    15     6    33 ar  
    16     6    37 1   
    17     7    31 ar  
    18     7    38 1   
    19     8    19 1   
    20     8    39 1   
    21     8    40 1   
    22     9    10 ar  
    23     9    14 ar  
    24     9    57 1   
    25    10    34 ar  
    26    10    41 1   
    27    11    15 ar  
    28    11    34 ar  
    29    11    56 1   
    30    12    57 1   
    31    13    57 1   
    32    14    15 ar  
    33    14    42 1   
    34    15    43 1   
    35    16    17 1   
    36    16    56 1   
    37    17    18 2   
    38    19    20 1   
    39    19    22 1   
    40    20    21 1   
    41    20    46 1   
    42    20    47 1   
    43    21    48 1   
    44    21    49 1   
    45    22    23 2   
    46    22    24 2   
    47    25    26 ar  
    48    25    50 1   
    49    26    27 ar  
    50    26    51 1   
    51    27    28 ar  
    52    27    52 1   
    53    28    29 ar  
    54    28    53 1   
    55    29    30 1   
    56    31    32 1   
    57    31    33 ar  
    58    33    54 1   
    59    34    55 1   
    60    44    56 1   
    61    45    56 1   
@<TRIPOS>SUBSTRUCTURE
     1 9LV         1 TEMP              0 ****  ****    0 ROOT
