@<TRIPOS>MOLECULE
9LW
   58    60     1     0     0
SMALL
No Charge or Current Charge


@<TRIPOS>ATOM
      1 CAA          9.3380    -2.3400    -2.9460 c3         1 9LW      -0.099100
      2 CAM          9.7360    -1.6710    -1.6200 c3         1 9LW       0.166600
      3 OAV          8.8760    -0.5330    -1.4310 os         1 9LW      -0.324000
      4 NAT          9.1850     0.1190    -0.2160 n2         1 9LW      -0.332700
      5 CAD          8.4320     1.1470     0.0430 ce         1 9LW       0.432800
      6 CAY          6.9510     1.0460     0.2640 ca         1 9LW      -0.203900
      7 CAJ          6.2050     2.2290     0.4360 ca         1 9LW      -0.040000
      8 CAL          4.8160     2.1700     0.6410 ca         1 9LW      -0.186500
      9 CAI          6.2810    -0.1980     0.3010 ca         1 9LW      -0.040000
     10 CAK          4.8910    -0.2530     0.5060 ca         1 9LW      -0.186500
     11 CAZ          4.1520     0.9360     0.6770 ca         1 9LW       0.165100
     12 OAW          2.7880     0.9430     0.8820 os         1 9LW      -0.348100
     13 CAN          2.0160    -0.2690     0.9360 c3         1 9LW       0.166600
     14 CAO          0.5430     0.1270     1.1720 c3         1 9LW      -0.081400
     15 CBB         -0.4660    -1.0550     1.1200 c3         1 9LW      -0.053700
     16 CAB         -0.1840    -2.1120     2.2210 c3         1 9LW      -0.094100
     17 CAP         -1.9250    -0.5220     1.1830 c3         1 9LW      -0.099400
     18 CAQ         -3.0170    -1.5910     0.9520 c3         1 9LW       0.121000
     19 NBC         -4.3710    -1.0120     0.9040 n          1 9LW      -0.296000
     20 CAX         -5.0690    -0.7820    -0.2870 c          1 9LW       0.575000
     21 OAC         -4.6980    -1.0030    -1.4330 o          1 9LW      -0.566000
     22 CAR         -5.1240    -0.5960     2.0000 cc         1 9LW      -0.153400
     23 CAS         -6.3160    -0.0980     1.5230 cd         1 9LW      -0.167400
     24 NBD         -6.2820    -0.2410     0.1410 n          1 9LW      -0.208200
     25 CBA         -7.3700     0.3280    -0.6010 ca         1 9LW       0.115600
     26 CAG         -8.7060     0.1590    -0.1960 ca         1 9LW      -0.186000
     27 CAE         -9.7330     0.7300    -0.9630 ca         1 9LW       0.349900
     28 NAU         -9.5020     1.4440    -2.0880 nb         1 9LW      -0.673000
     29 CAF         -8.2170     1.6020    -2.4800 ca         1 9LW       0.349900
     30 CAH         -7.1320     1.0640    -1.7730 ca         1 9LW      -0.186000
     31 H1           9.9690    -3.2170    -3.1320 hc         1 9LW       0.043033
     32 H2           8.2930    -2.6690    -2.9150 hc         1 9LW       0.043033
     33 H3           9.6190    -2.3910    -0.7990 h1         1 9LW       0.037700
     34 H5           8.8810     2.1280     0.2090 h4         1 9LW       0.021800
     35 H7           6.7000     3.1980     0.4090 ha         1 9LW       0.122000
     36 H8           4.2500     3.0890     0.7720 ha         1 9LW       0.122500
     37 H9           6.8310    -1.1280     0.1760 ha         1 9LW       0.122000
     38 H10          4.4090    -1.2260     0.5300 ha         1 9LW       0.122500
     39 H11          2.1000    -0.8220    -0.0090 h1         1 9LW       0.037200
     40 H12          0.8320    -2.5140     2.1360 hc         1 9LW       0.035700
     41 H13         -0.2980    -1.6740     3.2200 hc         1 9LW       0.035700
     42 H14         -0.8680    -2.9640     2.1400 hc         1 9LW       0.035700
     43 H15         -2.0970    -0.0390     2.1520 hc         1 9LW       0.053700
     44 H16         -2.0510     0.2550     0.4190 hc         1 9LW       0.053700
     45 H17         -2.8170    -2.1210     0.0110 h1         1 9LW       0.064700
     46 H18         -2.9920    -2.3310     1.7620 h1         1 9LW       0.064700
     47 H19         -4.7070    -0.6870     3.0010 h4         1 9LW       0.228000
     48 H20         -7.1660     0.3550     2.0280 h4         1 9LW       0.233000
     49 H21         -8.9580    -0.4180     0.6880 ha         1 9LW       0.138500
     50 H22        -10.7760     0.6100    -0.6700 h4         1 9LW       0.020600
     51 H26         -8.0550     2.1800    -3.3890 h4         1 9LW       0.020600
     52 H28         -6.1220     1.2270    -2.1350 ha         1 9LW       0.138500
     53 H30          9.4630    -1.6430    -3.7840 hc         1 9LW       0.043033
     54 H31         10.7890    -1.3620    -1.6680 h1         1 9LW       0.037700
     55 H4           2.3690    -0.9100     1.7540 h1         1 9LW       0.037200
     56 H6           0.4620     0.6330     2.1420 hc         1 9LW       0.058200
     57 H32          0.2640     0.8640     0.4080 hc         1 9LW       0.058200
     58 H33         -0.3400    -1.5500     0.1480 hc         1 9LW       0.052700
@<TRIPOS>BOND
     1     1     2 1   
     2     1    31 1   
     3     1    32 1   
     4     1    53 1   
     5     2     3 1   
     6     2    33 1   
     7     2    54 1   
     8     3     4 1   
     9     4     5 2   
    10     5     6 1   
    11     5    34 1   
    12     6     7 ar  
    13     6     9 ar  
    14     7     8 ar  
    15     7    35 1   
    16     8    11 ar  
    17     8    36 1   
    18     9    10 ar  
    19     9    37 1   
    20    10    11 ar  
    21    10    38 1   
    22    11    12 1   
    23    12    13 1   
    24    13    14 1   
    25    13    39 1   
    26    13    55 1   
    27    14    15 1   
    28    14    56 1   
    29    14    57 1   
    30    15    16 1   
    31    15    17 1   
    32    15    58 1   
    33    16    40 1   
    34    16    41 1   
    35    16    42 1   
    36    17    18 1   
    37    17    43 1   
    38    17    44 1   
    39    18    19 1   
    40    18    45 1   
    41    18    46 1   
    42    19    20 1   
    43    19    22 1   
    44    20    21 2   
    45    20    24 1   
    46    22    23 2   
    47    22    47 1   
    48    23    24 1   
    49    23    48 1   
    50    24    25 1   
    51    25    26 ar  
    52    25    30 ar  
    53    26    27 ar  
    54    26    49 1   
    55    27    28 ar  
    56    27    50 1   
    57    28    29 ar  
    58    29    30 ar  
    59    29    51 1   
    60    30    52 1   
@<TRIPOS>SUBSTRUCTURE
     1 9LW         1 TEMP              0 ****  ****    0 ROOT
