@<TRIPOS>MOLECULE
9LW
   58    60     1     0     0
SMALL
bcc


@<TRIPOS>ATOM
      1 CAA          9.2810    -2.7720    -2.1060 c3         1 9LW      -0.099100
      2 CAM          9.8010    -1.4290    -1.6500 c3         1 9LW       0.143400
      3 OAV          8.7180    -0.7190    -1.0600 os         1 9LW      -0.202300
      4 NAT          9.1370     0.4930    -0.6120 n2         1 9LW      -0.431200
      5 CAD          8.2270     1.2210    -0.0990 ce         1 9LW       0.432800
      6 CAY          6.7930     1.0340     0.1140 ca         1 9LW      -0.203900
      7 CAJ          6.1100     2.1240     0.6730 ca         1 9LW      -0.058000
      8 CAL          4.7570     2.0850     0.9250 ca         1 9LW      -0.204500
      9 CAI          6.0450    -0.1100    -0.1800 ca         1 9LW      -0.058000
     10 CAK          4.6820    -0.1640     0.0740 ca         1 9LW      -0.204500
     11 CAZ          4.0240     0.9320     0.6280 ca         1 9LW       0.165100
     12 OAW          2.7140     0.9720     0.9060 os         1 9LW      -0.324900
     13 CAN          1.9190    -0.1860     0.6810 c3         1 9LW       0.143400
     14 CAO          0.5000     0.1430     1.0960 c3         1 9LW      -0.081400
     15 CBB         -0.4660    -1.0320     0.9210 c3         1 9LW      -0.053700
     16 CAB         -0.1910    -2.1450     1.9310 c3         1 9LW      -0.094100
     17 CAP         -1.9020    -0.5140     1.0290 c3         1 9LW      -0.099400
     18 CAQ         -2.9620    -1.5920     0.8430 c3         1 9LW       0.121000
     19 NBC         -4.3030    -1.0470     0.8820 n          1 9LW      -0.363000
     20 CAX         -4.9630    -0.5800    -0.2150 c          1 9LW       0.784500
     21 OAC         -4.5850    -0.6150    -1.3760 o          1 9LW      -0.641500
     22 CAR         -5.0530    -0.8310     2.0220 cc         1 9LW      -0.103400
     23 CAS         -6.2050    -0.2540     1.6600 cd         1 9LW      -0.117400
     24 NBD         -6.1650    -0.0820     0.2750 n          1 9LW      -0.275200
     25 CBA         -7.2100     0.4200    -0.5000 ca         1 9LW       0.115600
     26 CAG         -8.5230     0.3170    -0.0460 ca         1 9LW      -0.269300
     27 CAE         -9.5390     0.8440    -0.8240 ca         1 9LW       0.415200
     28 NAU         -9.3450     1.4430    -1.9930 nb         1 9LW      -0.673000
     29 CAF         -8.0900     1.5350    -2.4160 ca         1 9LW       0.415200
     30 CAH         -6.9920     1.0520    -1.7220 ca         1 9LW      -0.269300
     31 H1          10.0950    -3.3380    -2.5590 hc         1 9LW       0.043033
     32 H2           8.8930    -3.3570    -1.2720 hc         1 9LW       0.043033
     33 H3          10.6070    -1.5540    -0.9200 h1         1 9LW       0.037700
     34 H5           8.6170     2.1750     0.2420 h4         1 9LW       0.021800
     35 H7           6.6580     3.0260     0.9180 ha         1 9LW       0.140000
     36 H8           4.2550     2.9420     1.3560 ha         1 9LW       0.140500
     37 H9           6.5100    -0.9830    -0.6090 ha         1 9LW       0.140000
     38 H10          4.1500    -1.0730    -0.1730 ha         1 9LW       0.140500
     39 H11          1.9470    -0.4660    -0.3780 h1         1 9LW       0.037200
     40 H12          0.8490    -2.4700     1.9090 hc         1 9LW       0.035700
     41 H13         -0.4120    -1.8060     2.9460 hc         1 9LW       0.035700
     42 H14         -0.7980    -3.0300     1.7370 hc         1 9LW       0.035700
     43 H15         -2.0410    -0.0380     2.0060 hc         1 9LW       0.053700
     44 H16         -2.0580     0.2620     0.2750 hc         1 9LW       0.053700
     45 H17         -2.8300    -2.1020    -0.1120 h1         1 9LW       0.064700
     46 H18         -2.9000    -2.3500     1.6220 h1         1 9LW       0.064700
     47 H19         -4.6960    -1.1030     3.0010 h4         1 9LW       0.178000
     48 H20         -7.0270     0.0870     2.2630 h4         1 9LW       0.183000
     49 H21         -8.7710    -0.1740     0.8840 ha         1 9LW       0.156500
     50 H22        -10.5640     0.7670    -0.4790 h4         1 9LW       0.020600
     51 H26         -7.9340     2.0330    -3.3670 h4         1 9LW       0.020600
     52 H28         -6.0040     1.1870    -2.1310 ha         1 9LW       0.156500
     53 H30          8.4930    -2.6650    -2.8520 hc         1 9LW       0.043033
     54 H31         10.2010    -0.8630    -2.4970 h1         1 9LW       0.037700
     55 H4           2.3200    -1.0280     1.2560 h1         1 9LW       0.037200
     56 H6           0.4890     0.4680     2.1410 hc         1 9LW       0.058200
     57 H32          0.1520     0.9900     0.4960 hc         1 9LW       0.058200
     58 H33         -0.3300    -1.4380    -0.0900 hc         1 9LW       0.052700
@<TRIPOS>BOND
     1     1     2 1   
     2     1    31 1   
     3     1    32 1   
     4     1    53 1   
     5     2     3 1   
     6     2    33 1   
     7     2    54 1   
     8     3     4 1   
     9     4     5 2   
    10     5     6 1   
    11     5    34 1   
    12     6     7 ar  
    13     6     9 ar  
    14     7     8 ar  
    15     7    35 1   
    16     8    11 ar  
    17     8    36 1   
    18     9    10 ar  
    19     9    37 1   
    20    10    11 ar  
    21    10    38 1   
    22    11    12 1   
    23    12    13 1   
    24    13    14 1   
    25    13    39 1   
    26    13    55 1   
    27    14    15 1   
    28    14    56 1   
    29    14    57 1   
    30    15    16 1   
    31    15    17 1   
    32    15    58 1   
    33    16    40 1   
    34    16    41 1   
    35    16    42 1   
    36    17    18 1   
    37    17    43 1   
    38    17    44 1   
    39    18    19 1   
    40    18    45 1   
    41    18    46 1   
    42    19    20 1   
    43    19    22 1   
    44    20    21 2   
    45    20    24 1   
    46    22    23 2   
    47    22    47 1   
    48    23    24 1   
    49    23    48 1   
    50    24    25 1   
    51    25    26 ar  
    52    25    30 ar  
    53    26    27 ar  
    54    26    49 1   
    55    27    28 ar  
    56    27    50 1   
    57    28    29 ar  
    58    29    30 ar  
    59    29    51 1   
    60    30    52 1   
@<TRIPOS>SUBSTRUCTURE
     1 9LW         1 TEMP              0 ****  ****    0 ROOT
