@<TRIPOS>MOLECULE
9LX
   45    48     1     0     0
SMALL
No Charge or Current Charge


@<TRIPOS>ATOM
      1 C10         -1.3920     0.0110    -0.1870 cc         1 9LX       0.166400
      2 C11         -0.9080    -1.2410    -0.7720 ca         1 9LX      -0.048800
      3 C12         -1.0630    -1.4640    -2.1550 ca         1 9LX      -0.051000
      4 C13         -0.6380    -2.6700    -2.7370 ca         1 9LX      -0.159000
      5 C14         -0.0670    -3.6740    -1.9390 ca         1 9LX      -0.062000
      6 C15          0.0700    -3.4720    -0.5560 ca         1 9LX      -0.217000
      7 C16         -0.3530    -2.2660     0.0300 ca         1 9LX       0.169100
      8 C19         -2.5330     1.3490     1.0340 cd         1 9LX      -0.088000
      9 C20         -3.4100     1.9510     1.9830 cd         1 9LX      -0.041000
     10 C21         -3.3950     3.3290     2.0130 cc         1 9LX      -0.145000
     11 C22         -2.5300     4.0800     1.1360 cc         1 9LX       0.142000
     12 C24         -1.6770     3.4870     0.2140 cd         1 9LX      -0.167000
     13 C26          2.2270     0.9240     0.2680 ca         1 9LX      -0.059000
     14 C27          2.9750     0.2720     1.2640 ca         1 9LX      -0.175500
     15 C01          4.7370    -2.9410     1.9500 c3         1 9LX       0.148900
     16 C03          3.4670    -1.0250     1.0520 ca         1 9LX       0.145100
     17 C04          3.2110    -1.6710    -0.1760 ca         1 9LX      -0.175500
     18 C05          2.4630    -1.0200    -1.1720 ca         1 9LX      -0.059000
     19 C06          1.9560     0.2760    -0.9550 ca         1 9LX      -0.139300
     20 C07          1.1450     0.9620    -2.0530 c3         1 9LX       0.243100
     21 C09         -0.9670     1.2680    -0.6070 cd         1 9LX       0.001900
     22 O17         -0.1960    -2.1030     1.3770 oh         1 9LX      -0.512100
     23 N18         -2.3440     0.0600     0.8130 nc         1 9LX      -0.257600
     24 F23         -2.5630     5.4160     1.2340 f          1 9LX      -0.167000
     25 N25         -1.7400     2.0880     0.1910 na         1 9LX       0.114100
     26 H1          -1.5140    -0.6960    -2.7790 ha         1 9LX       0.117000
     27 H2          -0.7540    -2.8280    -3.8070 ha         1 9LX       0.116000
     28 H3           0.2620    -4.6080    -2.3900 ha         1 9LX       0.111000
     29 H4           0.5090    -4.2570     0.0550 ha         1 9LX       0.112000
     30 H5          -4.0430     1.3640     2.6420 ha         1 9LX       0.148000
     31 H6          -4.0300     3.8710     2.7060 ha         1 9LX       0.141000
     32 H7          -1.0090     4.0100    -0.4550 h4         1 9LX       0.157000
     33 H8           1.8530     1.9290     0.4510 ha         1 9LX       0.120000
     34 H9           3.1730     0.7760     2.2070 ha         1 9LX       0.122500
     35 H10          3.9390    -3.6780     1.7890 h1         1 9LX       0.041033
     36 H11          5.4450    -2.9990     1.1130 h1         1 9LX       0.041033
     37 H12          5.2720    -3.2150     2.8670 h1         1 9LX       0.041033
     38 H13          3.5790    -2.6740    -0.3750 ha         1 9LX       0.122500
     39 H14          2.2680    -1.5310    -2.1130 ha         1 9LX       0.120000
     40 H15          1.8080     1.6630    -2.5790 h1         1 9LX       0.039200
     41 H16          0.8190     0.2230    -2.7950 h1         1 9LX       0.039200
     42 H17         -0.0180     2.7060    -1.7250 hn         1 9LX       0.453000
     43 H18          0.2310    -2.9070     1.7350 ho         1 9LX       0.459000
     44 N08         -0.0220     1.7020    -1.5380 nu         1 9LX      -0.767200
     45 O02          4.1920    -1.6150     2.0670 os         1 9LX      -0.342100
@<TRIPOS>BOND
     1     1     2 1   
     2     1    21 2   
     3     1    23 1   
     4     2     3 ar  
     5     2     7 ar  
     6     3     4 ar  
     7     3    26 1   
     8     4     5 ar  
     9     4    27 1   
    10     5     6 ar  
    11     5    28 1   
    12     6     7 ar  
    13     6    29 1   
    14     7    22 1   
    15     8     9 1   
    16     8    23 2   
    17     8    25 1   
    18     9    10 2   
    19     9    30 1   
    20    10    11 1   
    21    10    31 1   
    22    11    12 2   
    23    11    24 1   
    24    12    25 1   
    25    12    32 1   
    26    13    14 ar  
    27    13    19 ar  
    28    13    33 1   
    29    14    16 ar  
    30    14    34 1   
    31    15    35 1   
    32    15    36 1   
    33    15    37 1   
    34    15    45 1   
    35    16    17 ar  
    36    16    45 1   
    37    17    18 ar  
    38    17    38 1   
    39    18    19 ar  
    40    18    39 1   
    41    19    20 1   
    42    20    40 1   
    43    20    41 1   
    44    20    44 1   
    45    21    25 1   
    46    21    44 1   
    47    22    43 1   
    48    42    44 1   
@<TRIPOS>SUBSTRUCTURE
     1 9LX         1 TEMP              0 ****  ****    0 ROOT
