@<TRIPOS>MOLECULE
9LX
   45    48     1     0     0
SMALL
abcg2


@<TRIPOS>ATOM
      1 C10         -2.0770    -0.2280    -0.2210 cc         1 9LX       0.166400
      2 C11         -1.7710    -1.6170    -0.5830 ca         1 9LX      -0.048800
      3 C12         -0.6930    -1.9080    -1.4160 ca         1 9LX      -0.051000
      4 C13         -0.3680    -3.2110    -1.7630 ca         1 9LX      -0.159000
      5 C14         -1.1410    -4.2530    -1.2720 ca         1 9LX      -0.062000
      6 C15         -2.2210    -3.9920    -0.4420 ca         1 9LX      -0.217000
      7 C16         -2.5390    -2.6820    -0.0910 ca         1 9LX       0.169100
      8 C19         -3.2070     1.5620     0.0400 cd         1 9LX      -0.088000
      9 C20         -4.1770     2.5820     0.1190 cd         1 9LX      -0.041000
     10 C21         -3.8270     3.8090     0.5970 cc         1 9LX      -0.145000
     11 C22         -2.4930     4.0280     1.0040 cc         1 9LX       0.142000
     12 C24         -1.5460     3.0640     0.9380 cd         1 9LX      -0.167000
     13 C26          3.6380     1.3590    -0.1520 ca         1 9LX      -0.059000
     14 C27          4.9050     0.8140    -0.0370 ca         1 9LX      -0.175500
     15 C01          6.5420    -2.4050     0.3460 c3         1 9LX       0.148900
     16 C03          5.0640    -0.5650     0.1040 ca         1 9LX       0.145100
     17 C04          3.9340    -1.3790     0.1320 ca         1 9LX      -0.175500
     18 C05          2.6710    -0.8130     0.0130 ca         1 9LX      -0.059000
     19 C06          2.4980     0.5570    -0.1360 ca         1 9LX      -0.139300
     20 C07          1.1310     1.1610    -0.3170 c3         1 9LX       0.243100
     21 C09         -1.1800     0.6910     0.2910 cd         1 9LX       0.001900
     22 O17         -3.5620    -2.3970     0.7350 oh         1 9LX      -0.512100
     23 N18         -3.3090     0.3130    -0.3730 nc         1 9LX      -0.257600
     24 F23         -2.1580     5.2380     1.4720 f          1 9LX      -0.167000
     25 N25         -1.9200     1.8460     0.4510 na         1 9LX       0.114100
     26 H1          -0.1060    -1.0910    -1.8150 ha         1 9LX       0.117000
     27 H2           0.4740    -3.4060    -2.4130 ha         1 9LX       0.116000
     28 H3          -0.9080    -5.2780    -1.5310 ha         1 9LX       0.111000
     29 H4          -2.8190    -4.8110    -0.0580 ha         1 9LX       0.112000
     30 H5          -5.1870     2.3670    -0.2000 ha         1 9LX       0.148000
     31 H6          -4.5510     4.6090     0.6700 ha         1 9LX       0.141000
     32 H7          -0.5200     3.2040     1.2480 h4         1 9LX       0.157000
     33 H8           3.5350     2.4330    -0.2520 ha         1 9LX       0.120000
     34 H9           5.7770     1.4550    -0.0500 ha         1 9LX       0.122500
     35 H10          6.0760    -2.8030     1.2510 h1         1 9LX       0.041033
     36 H11          6.1680    -2.9630    -0.5170 h1         1 9LX       0.041033
     37 H12          7.6180    -2.5500     0.4140 h1         1 9LX       0.041033
     38 H13          4.0140    -2.4520     0.2440 ha         1 9LX       0.122500
     39 H14          1.8030    -1.4610     0.0440 ha         1 9LX       0.120000
     40 H15          1.2060     2.2520    -0.2260 h1         1 9LX       0.039200
     41 H16          0.7740     0.9670    -1.3310 h1         1 9LX       0.039200
     42 H17          0.3780     0.7730     1.5690 hn         1 9LX       0.453000
     43 H18         -3.9860    -3.2110     1.0290 ho         1 9LX       0.459000
     44 N08          0.1630     0.5710     0.6010 nu         1 9LX      -0.767200
     45 O02          6.3300    -1.0150     0.2090 os         1 9LX      -0.342100
@<TRIPOS>BOND
     1     1     2 1   
     2     1    21 2   
     3     1    23 1   
     4     2     3 ar  
     5     2     7 ar  
     6     3     4 ar  
     7     3    26 1   
     8     4     5 ar  
     9     4    27 1   
    10     5     6 ar  
    11     5    28 1   
    12     6     7 ar  
    13     6    29 1   
    14     7    22 1   
    15     8     9 1   
    16     8    23 2   
    17     8    25 1   
    18     9    10 2   
    19     9    30 1   
    20    10    11 1   
    21    10    31 1   
    22    11    12 2   
    23    11    24 1   
    24    12    25 1   
    25    12    32 1   
    26    13    14 ar  
    27    13    19 ar  
    28    13    33 1   
    29    14    16 ar  
    30    14    34 1   
    31    15    35 1   
    32    15    36 1   
    33    15    37 1   
    34    15    45 1   
    35    16    17 ar  
    36    16    45 1   
    37    17    18 ar  
    38    17    38 1   
    39    18    19 ar  
    40    18    39 1   
    41    19    20 1   
    42    20    40 1   
    43    20    41 1   
    44    20    44 1   
    45    21    25 1   
    46    21    44 1   
    47    22    43 1   
    48    42    44 1   
@<TRIPOS>SUBSTRUCTURE
     1 9LX         1 TEMP              0 ****  ****    0 ROOT
