@<TRIPOS>MOLECULE
9LY
   70    75     1     0     0
SMALL
No Charge or Current Charge


@<TRIPOS>ATOM
      1 C4          -2.7380     2.6860    -2.2380 ca         1 9LY      -0.070000
      2 C7          -1.9100     2.0120    -1.3280 ca         1 9LY       0.065400
      3 C8          -2.2430     0.7720    -0.8500 ca         1 9LY      -0.048200
      4 C13         -2.0960    -1.6350     1.4540 c6         1 9LY      -0.064700
      5 C17         -1.5680    -2.9310     2.1380 c6         1 9LY      -0.073900
      6 C20         -3.6420    -1.2510     3.4700 c6         1 9LY      -0.072900
      7 C21         -2.5790    -0.6220     2.5370 c6         1 9LY      -0.073900
      8 C22          2.7130    -3.2870    -1.6950 c6         1 9LY      -0.089900
      9 C24          3.3770    -3.2270    -4.1610 c6         1 9LY      -0.077400
     10 C26          1.2780    -2.0130    -3.3560 c6         1 9LY      -0.089900
     11 C28          0.9610     1.5080     0.6800 ca         1 9LY      -0.189900
     12 C1          -3.9270     2.0590    -2.6570 ca         1 9LY       0.114000
     13 N10         -0.7080     2.4570    -0.8210 nc         1 9LY      -0.544100
     14 C38         -0.3330     1.4470    -0.0150 cd         1 9LY       0.460400
     15 C29          1.1340     1.0460     1.9960 ca         1 9LY      -0.045000
     16 C30          2.3930     1.1890     2.5980 ca         1 9LY      -0.156000
     17 C31          3.4590     1.8070     1.9040 ca         1 9LY       0.476500
     18 N32          3.2620     2.2790     0.6430 nb         1 9LY      -0.712000
     19 C27          2.0480     2.1460     0.0630 ca         1 9LY       0.402900
     20 N33          4.7030     1.9070     2.5710 na         1 9LY       0.102300
     21 C34          5.9210     1.8230     1.9050 cc         1 9LY      -0.123000
     22 C35          6.8170     2.0190     2.9180 cd         1 9LY      -0.232000
     23 C36          6.0900     2.2210     4.1150 cd         1 9LY       0.260900
     24 N37          4.7820     2.1680     3.9320 nc         1 9LY      -0.524800
     25 N9          -1.2520     0.3700     0.0200 na         1 9LY      -0.161600
     26 C11         -1.0230    -1.0290     0.4780 c3         1 9LY       0.010300
     27 C18         -2.6300    -3.5580     3.0750 c6         1 9LY      -0.072900
     28 C19         -3.1100    -2.5410     4.1370 c6         1 9LY      -0.076400
     29 C12         -0.6740    -1.9430    -0.7210 c          1 9LY       0.587100
     30 O14         -1.5160    -2.5040    -1.4090 o          1 9LY      -0.581100
     31 N15          0.6770    -2.0990    -0.9550 ns         1 9LY      -0.497900
     32 C16          1.2660    -2.8640    -2.0580 c6         1 9LY       0.108700
     33 C23          3.3840    -4.0620    -2.8570 c6         1 9LY      -0.071900
     34 C25          1.9420    -2.7780    -4.5280 c6         1 9LY      -0.071900
     35 C3          -3.4220     0.1180    -1.2540 ca         1 9LY      -0.113000
     36 C2          -4.2670     0.7770    -2.1670 ca         1 9LY       0.148000
     37 F6          -5.4070     0.1730    -2.5730 f          1 9LY      -0.161000
     38 H1          -2.4660     3.6680    -2.6140 ha         1 9LY       0.151000
     39 H2          -2.9660    -1.9160     0.8490 hc         1 9LY       0.075700
     40 H4          -0.6590    -2.7070     2.7140 hc         1 9LY       0.042950
     41 H5          -3.9350    -0.5260     4.2420 hc         1 9LY       0.044950
     42 H6          -4.5510    -1.4780     2.8960 hc         1 9LY       0.044950
     43 H7          -1.7270    -0.2800     3.1400 hc         1 9LY       0.042950
     44 H8          -3.0070     0.2720     2.0640 hc         1 9LY       0.042950
     45 H9           3.3140    -2.4000    -1.4500 hc         1 9LY       0.045200
     46 H10          2.7010    -3.9150    -0.7940 hc         1 9LY       0.045200
     47 H11          4.0210    -2.3450    -4.0390 hc         1 9LY       0.042200
     48 H12          3.8070    -3.8150    -4.9830 hc         1 9LY       0.042200
     49 H13          0.2510    -1.7390    -3.6330 hc         1 9LY       0.045200
     50 H14          1.8150    -1.0700    -3.1800 hc         1 9LY       0.045200
     51 H15          0.3150     0.6010     2.5550 ha         1 9LY       0.134000
     52 H16          2.5440     0.8210     3.6090 ha         1 9LY       0.161000
     53 H17          1.9600     2.5490    -0.9460 h4         1 9LY       0.042100
     54 H18          6.0270     1.6420     0.8410 h4         1 9LY       0.176000
     55 H19          7.8980     2.0260     2.8250 ha         1 9LY       0.151000
     56 H20          6.4810     2.4110     5.1080 h4         1 9LY       0.042100
     57 H21         -0.1060    -1.0050     1.0720 h1         1 9LY       0.067700
     58 H22         -3.4870    -3.9070     2.4820 hc         1 9LY       0.044950
     59 H23         -2.2130    -4.4450     3.5700 hc         1 9LY       0.044950
     60 H24         -2.2810    -2.2930     4.8150 hc         1 9LY       0.041700
     61 H25         -3.8960    -2.9930     4.7580 hc         1 9LY       0.041700
     62 H26          1.3070    -1.6110    -0.3300 hn         1 9LY       0.309500
     63 H27          0.6610    -3.7690    -2.2240 h1         1 9LY       0.083700
     64 H28          4.4170    -4.3210    -2.5850 hc         1 9LY       0.044450
     65 H29          2.8570    -5.0120    -3.0220 hc         1 9LY       0.044450
     66 H30          1.9680    -2.1410    -5.4230 hc         1 9LY       0.044450
     67 H31          1.3340    -3.6560    -4.7880 hc         1 9LY       0.044450
     68 H32         -3.6900    -0.8680    -0.8940 ha         1 9LY       0.150000
     69 F5          -4.7400     2.6920    -3.5350 f          1 9LY      -0.163000
     70 H3          -1.2780    -3.6720     1.3800 hc         1 9LY       0.042950
@<TRIPOS>BOND
     1     1     2 ar  
     2     1    12 ar  
     3     1    38 1   
     4     2     3 ar  
     5     2    13 1   
     6     3    25 1   
     7     3    35 ar  
     8     4     5 1   
     9     4     7 1   
    10     4    26 1   
    11     4    39 1   
    12     5    27 1   
    13     5    40 1   
    14     5    70 1   
    15     6     7 1   
    16     6    28 1   
    17     6    41 1   
    18     6    42 1   
    19     7    43 1   
    20     7    44 1   
    21     8    32 1   
    22     8    33 1   
    23     8    45 1   
    24     8    46 1   
    25     9    33 1   
    26     9    34 1   
    27     9    47 1   
    28     9    48 1   
    29    10    32 1   
    30    10    34 1   
    31    10    49 1   
    32    10    50 1   
    33    11    14 1   
    34    11    15 ar  
    35    11    19 ar  
    36    12    36 ar  
    37    12    69 1   
    38    13    14 2   
    39    14    25 1   
    40    15    16 ar  
    41    15    51 1   
    42    16    17 ar  
    43    16    52 1   
    44    17    18 ar  
    45    17    20 1   
    46    18    19 ar  
    47    19    53 1   
    48    20    21 1   
    49    20    24 1   
    50    21    22 2   
    51    21    54 1   
    52    22    23 1   
    53    22    55 1   
    54    23    24 2   
    55    23    56 1   
    56    25    26 1   
    57    26    29 1   
    58    26    57 1   
    59    27    28 1   
    60    27    58 1   
    61    27    59 1   
    62    28    60 1   
    63    28    61 1   
    64    29    30 2   
    65    29    31 1   
    66    31    32 1   
    67    31    62 1   
    68    32    63 1   
    69    33    64 1   
    70    33    65 1   
    71    34    66 1   
    72    34    67 1   
    73    35    36 ar  
    74    35    68 1   
    75    36    37 1   
@<TRIPOS>SUBSTRUCTURE
     1 9LY         1 TEMP              0 ****  ****    0 ROOT
