@<TRIPOS>MOLECULE
9LY
   70    75     1     0     0
SMALL
abcg2


@<TRIPOS>ATOM
      1 C4          -3.4800     2.9740    -1.6710 ca         1 9LY      -0.070000
      2 C7          -2.4770     2.2650    -1.0080 ca         1 9LY       0.065400
      3 C8          -2.6430     0.9090    -0.6850 ca         1 9LY      -0.048200
      4 C13         -2.0840    -1.5620     1.1960 c6         1 9LY      -0.064700
      5 C17         -1.4300    -2.8400     1.7310 c6         1 9LY      -0.073900
      6 C20         -3.6610    -1.5870     3.1630 c6         1 9LY      -0.072900
      7 C21         -2.6790    -0.7520     2.3480 c6         1 9LY      -0.073900
      8 C22          2.3630    -3.6050    -1.1150 c6         1 9LY      -0.089900
      9 C24          4.0350    -3.4620    -2.9940 c6         1 9LY      -0.077400
     10 C26          2.3770    -1.5960    -2.6380 c6         1 9LY      -0.089900
     11 C28          0.6660     1.6710     0.5280 ca         1 9LY      -0.189900
     12 C1          -4.6190     2.2860    -1.9980 ca         1 9LY       0.114000
     13 N10         -1.2520     2.7080    -0.5850 nc         1 9LY      -0.544100
     14 C38         -0.6980     1.6780    -0.0170 cd         1 9LY       0.460400
     15 C29          0.9370     1.5570     1.8910 ca         1 9LY      -0.045000
     16 C30          2.2450     1.5360     2.3290 ca         1 9LY      -0.156000
     17 C31          3.2460     1.6310     1.3650 ca         1 9LY       0.476500
     18 N32          3.0070     1.7510     0.0730 nb         1 9LY      -0.712000
     19 C27          1.7480     1.7730    -0.3350 ca         1 9LY       0.402900
     20 N33          4.5950     1.6000     1.7300 na         1 9LY       0.102300
     21 C34          5.6700     1.6650     0.9010 cc         1 9LY      -0.123000
     22 C35          6.7770     1.5930     1.7000 cd         1 9LY      -0.232000
     23 C36          6.2630     1.4840     3.0100 cd         1 9LY       0.260900
     24 N37          4.9500     1.4890     3.0140 nc         1 9LY      -0.524800
     25 N9          -1.4900     0.5580    -0.0220 na         1 9LY      -0.161600
     26 C11         -1.0440    -0.7560     0.4160 c3         1 9LY       0.010300
     27 C18         -2.4120    -3.6760     2.5420 c6         1 9LY      -0.072900
     28 C19         -3.0230    -2.8700     3.6820 c6         1 9LY      -0.076400
     29 C12         -0.5250    -1.5130    -0.8080 c          1 9LY       0.587100
     30 O14         -1.2790    -1.8090    -1.7220 o          1 9LY      -0.581100
     31 N15          0.7830    -1.7870    -0.7730 ns         1 9LY      -0.497900
     32 C16          1.5150    -2.5260    -1.7850 c6         1 9LY       0.108700
     33 C23          3.1710    -4.3880    -2.1430 c6         1 9LY      -0.071900
     34 C25          3.1860    -2.3870    -3.6630 c6         1 9LY      -0.071900
     35 C3          -3.7970     0.2110    -1.0370 ca         1 9LY      -0.113000
     36 C2          -4.7690     0.9300    -1.6880 ca         1 9LY       0.148000
     37 F6          -5.9060     0.3250    -2.0530 f          1 9LY      -0.161000
     38 H1          -3.3640     4.0210    -1.9200 ha         1 9LY       0.151000
     39 H2          -2.8950    -1.8660     0.5290 hc         1 9LY       0.075700
     40 H4          -0.5780    -2.5640     2.3640 hc         1 9LY       0.042950
     41 H5          -4.0480    -0.9920     3.9930 hc         1 9LY       0.044950
     42 H6          -4.5220    -1.8410     2.5350 hc         1 9LY       0.044950
     43 H7          -1.8690    -0.3990     2.9960 hc         1 9LY       0.042950
     44 H8          -3.1880     0.1410     1.9750 hc         1 9LY       0.042950
     45 H9           3.0450    -3.1310    -0.4000 hc         1 9LY       0.045200
     46 H10          1.7170    -4.2740    -0.5420 hc         1 9LY       0.045200
     47 H11          4.7920    -2.9880    -2.3600 hc         1 9LY       0.042200
     48 H12          4.5760    -4.0390    -3.7470 hc         1 9LY       0.042200
     49 H13          1.7410    -0.8600    -3.1350 hc         1 9LY       0.045200
     50 H14          3.0570    -1.0390    -1.9840 hc         1 9LY       0.045200
     51 H15          0.1300     1.4870     2.6090 ha         1 9LY       0.134000
     52 H16          2.4800     1.4480     3.3790 ha         1 9LY       0.161000
     53 H17          1.5890     1.8680    -1.4030 h4         1 9LY       0.042100
     54 H18          5.5620     1.7540    -0.1660 h4         1 9LY       0.176000
     55 H19          7.8090     1.6140     1.3920 ha         1 9LY       0.151000
     56 H20          6.8080     1.4030     3.9380 h4         1 9LY       0.042100
     57 H21         -0.2230    -0.5800     1.1130 h1         1 9LY       0.067700
     58 H22         -3.2090    -4.0400     1.8850 hc         1 9LY       0.044950
     59 H23         -1.9040    -4.5610     2.9300 hc         1 9LY       0.044950
     60 H24         -2.2430    -2.6240     4.4100 hc         1 9LY       0.041700
     61 H25         -3.7640    -3.4710     4.2150 hc         1 9LY       0.041700
     62 H26          1.3110    -1.4760     0.0280 hn         1 9LY       0.309500
     63 H27          0.7750    -3.0090    -2.4280 h1         1 9LY       0.083700
     64 H28          3.7900    -5.1330    -1.6380 hc         1 9LY       0.044450
     65 H29          2.4860    -4.9420    -2.7940 hc         1 9LY       0.044450
     66 H30          3.8140    -1.7070    -4.2420 hc         1 9LY       0.044450
     67 H31          2.5020    -2.8610    -4.3760 hc         1 9LY       0.044450
     68 H32         -3.9520    -0.8390    -0.8390 ha         1 9LY       0.150000
     69 F5          -5.6250     2.9010    -2.6340 f          1 9LY      -0.163000
     70 H3          -1.0270    -3.4400     0.9110 hc         1 9LY       0.042950
@<TRIPOS>BOND
     1     1     2 ar  
     2     1    12 ar  
     3     1    38 1   
     4     2     3 ar  
     5     2    13 1   
     6     3    25 1   
     7     3    35 ar  
     8     4     5 1   
     9     4     7 1   
    10     4    26 1   
    11     4    39 1   
    12     5    27 1   
    13     5    40 1   
    14     5    70 1   
    15     6     7 1   
    16     6    28 1   
    17     6    41 1   
    18     6    42 1   
    19     7    43 1   
    20     7    44 1   
    21     8    32 1   
    22     8    33 1   
    23     8    45 1   
    24     8    46 1   
    25     9    33 1   
    26     9    34 1   
    27     9    47 1   
    28     9    48 1   
    29    10    32 1   
    30    10    34 1   
    31    10    49 1   
    32    10    50 1   
    33    11    14 1   
    34    11    15 ar  
    35    11    19 ar  
    36    12    36 ar  
    37    12    69 1   
    38    13    14 2   
    39    14    25 1   
    40    15    16 ar  
    41    15    51 1   
    42    16    17 ar  
    43    16    52 1   
    44    17    18 ar  
    45    17    20 1   
    46    18    19 ar  
    47    19    53 1   
    48    20    21 1   
    49    20    24 1   
    50    21    22 2   
    51    21    54 1   
    52    22    23 1   
    53    22    55 1   
    54    23    24 2   
    55    23    56 1   
    56    25    26 1   
    57    26    29 1   
    58    26    57 1   
    59    27    28 1   
    60    27    58 1   
    61    27    59 1   
    62    28    60 1   
    63    28    61 1   
    64    29    30 2   
    65    29    31 1   
    66    31    32 1   
    67    31    62 1   
    68    32    63 1   
    69    33    64 1   
    70    33    65 1   
    71    34    66 1   
    72    34    67 1   
    73    35    36 ar  
    74    35    68 1   
    75    36    37 1   
@<TRIPOS>SUBSTRUCTURE
     1 9LY         1 TEMP              0 ****  ****    0 ROOT
