@<TRIPOS>MOLECULE
9LZ
  120   123     1     0     0
SMALL
No Charge or Current Charge


@<TRIPOS>ATOM
      1 OAA         12.5770    43.9660    38.6280 o          1 9LZ      -0.778500
      2 CBZ         13.2460    44.0440    39.6470 c          1 9LZ       0.713000
      3 OAN         13.2140    43.2060    40.5360 o          1 9LZ      -0.778500
      4 CBK         14.2150    45.2300    39.7950 c3         1 9LZ      -0.199400
      5 CBM         15.5960    44.8720    39.1850 c3         1 9LZ      -0.037400
      6 CCQ         16.6580    46.0070    39.2390 c3         1 9LZ      -0.040300
      7 CCB         16.2690    47.2270    38.3360 c          1 9LZ       0.717000
      8 OAP         15.7920    48.2270    38.8590 o          1 9LZ      -0.755500
      9 OAC         16.5710    47.1820    37.1510 o          1 9LZ      -0.755500
     10 NBV         16.9600    46.4370    40.6270 ns         1 9LZ      -0.463900
     11 CCC         17.7290    45.7450    41.5260 c          1 9LZ       0.643100
     12 OAD         18.2870    44.6880    41.2750 o          1 9LZ      -0.712100
     13 N           17.8010    46.3760    42.7380 ns         1 9LZ      -0.513900
     14 CA          18.5760    45.9110    43.9160 c3         1 9LZ      -0.006300
     15 C           18.0720    46.5870    45.2430 c          1 9LZ       0.711000
     16 O           17.2790    47.5190    45.1710 o          1 9LZ      -0.749000
     17 OXT         18.4150    46.0960    46.3100 o          1 9LZ      -0.749000
     18 CB          20.1170    46.0320    43.7090 c3         1 9LZ      -0.058400
     19 CBI         20.6590    47.3820    43.1690 c3         1 9LZ      -0.066400
     20 CBH         20.5710    48.5680    44.1610 c3         1 9LZ      -0.095400
     21 CBJ         21.1340    49.8940    43.6080 c3         1 9LZ       0.094000
     22 NBS         22.5620    49.8040    43.3010 ns         1 9LZ      -0.472900
     23 CCF         23.4340    50.8700    43.2850 c          1 9LZ       0.583100
     24 OAG         23.0580    52.0160    43.5080 o          1 9LZ      -0.623100
     25 CCR         24.9120    50.5150    42.9470 c3         1 9LZ       0.026700
     26 CBO         25.5690    49.6280    44.0400 c3         1 9LZ      -0.040100
     27 CCK         24.9900    48.2170    44.1070 ca         1 9LZ      -0.094300
     28 CBG         24.3080    47.7810    45.2600 ca         1 9LZ      -0.069000
     29 CCO         23.7650    46.4840    45.3190 ca         1 9LZ      -0.027000
     30 CBD         23.0860    46.0490    46.4740 ca         1 9LZ      -0.069000
     31 CAU         22.5530    44.7490    46.5310 ca         1 9LZ      -0.096000
     32 CAT         22.6930    43.8820    45.4340 ca         1 9LZ      -0.105000
     33 CBC         23.3660    44.3130    44.2770 ca         1 9LZ      -0.102000
     34 CCN         23.9050    45.6120    44.2170 ca         1 9LZ      -0.029000
     35 CBE         24.5840    46.0470    43.0650 ca         1 9LZ      -0.099000
     36 CBB         25.1260    47.3420    43.0120 ca         1 9LZ      -0.111000
     37 NBW         25.6900    51.7570    42.7330 ns         1 9LZ      -0.488900
     38 CCD         26.8770    51.8490    42.0390 c          1 9LZ       0.619700
     39 OAE         27.3860    50.8620    41.5230 o          1 9LZ      -0.640100
     40 CCL         27.5040    53.2260    41.9420 ca         1 9LZ      -0.156600
     41 CBA         28.7280    53.3820    41.2520 ca         1 9LZ      -0.069500
     42 CAX         29.3360    54.6440    41.1400 ca         1 9LZ      -0.107000
     43 CAZ         26.9070    54.3730    42.5210 ca         1 9LZ      -0.069500
     44 CAW         27.5200    55.6340    42.4050 ca         1 9LZ      -0.107000
     45 CCJ         28.7360    55.7780    41.7140 ca         1 9LZ      -0.071300
     46 CBN         29.3950    57.1450    41.5910 c3         1 9LZ       0.160300
     47 NBT         30.1620    57.4870    42.7870 ns         1 9LZ      -0.520900
     48 CCG         31.4730    57.1170    43.0220 c          1 9LZ       0.614100
     49 OAH         32.1050    56.4840    42.1850 o          1 9LZ      -0.563100
     50 CCS         32.0930    57.6430    44.3730 c3         1 9LZ       0.092700
     51 CBP         33.6220    57.9250    44.3410 c3         1 9LZ      -0.365400
     52 SCU         34.6280    56.5490    44.9250 s6         1 9LZ       1.320600
     53 OAQ         34.2260    56.4010    46.3310 o          1 9LZ      -0.697533
     54 OAK         36.0030    57.0290    44.7340 o          1 9LZ      -0.697533
     55 OAJ         34.2530    55.4200    44.0650 o          1 9LZ      -0.697533
     56 NBY         31.3710    58.8400    44.8710 ns         1 9LZ      -0.501900
     57 CCH         31.3600    60.0810    44.2580 c          1 9LZ       0.599100
     58 OAI         31.9040    60.2740    43.1770 o          1 9LZ      -0.598100
     59 CCT         30.5730    61.1840    45.0400 c3         1 9LZ       0.072700
     60 CBQ         29.0460    60.8940    45.0640 c3         1 9LZ      -0.370400
     61 SCV         28.0860    61.9720    46.1430 s6         1 9LZ       1.325600
     62 OAR         28.7640    61.8640    47.4420 o          1 9LZ      -0.699200
     63 OAM         26.7430    61.3780    46.1060 o          1 9LZ      -0.699200
     64 OAL         28.1860    63.2890    45.5010 o          1 9LZ      -0.699200
     65 NBX         30.8330    62.5170    44.4670 ns         1 9LZ      -0.477900
     66 CCE         31.9830    63.2460    44.6830 c          1 9LZ       0.611700
     67 OAF         32.9050    62.7870    45.3430 o          1 9LZ      -0.601100
     68 CCM         32.0550    64.6240    44.0830 ca         1 9LZ      -0.180600
     69 CAY         33.2260    65.3990    44.2260 ca         1 9LZ      -0.009000
     70 CAV         33.2560    66.6790    43.6530 ca         1 9LZ      -0.227000
     71 CCI         32.1260    67.1350    42.9660 ca         1 9LZ       0.557200
     72 FAS         32.1110    68.3590    42.3990 f          1 9LZ      -0.253200
     73 NBR         30.9980    66.4170    42.8180 nb         1 9LZ      -0.723000
     74 CBF         30.9710    65.1820    43.3730 ca         1 9LZ       0.406900
     75 H2          13.8430    46.0910    39.2270 hc         1 9LZ       0.031700
     76 H3          14.3930    45.4420    40.8560 hc         1 9LZ       0.031700
     77 H4          15.9930    43.9900    39.7010 hc         1 9LZ       0.022700
     78 H5          15.4580    44.5770    38.1370 hc         1 9LZ       0.022700
     79 H6          17.5890    45.6040    38.8200 h1         1 9LZ       0.035700
     80 H8          16.5610    47.3130    40.9370 hn         1 9LZ       0.284500
     81 H9          17.2660    47.2290    42.8470 hn         1 9LZ       0.328500
     82 H10         18.3550    44.8430    44.0360 h1         1 9LZ       0.019700
     83 H12         20.4240    45.2510    43.0030 hc         1 9LZ       0.027700
     84 H13         20.6250    45.7920    44.6500 hc         1 9LZ       0.027700
     85 H14         21.7110    47.2290    42.8980 hc         1 9LZ       0.036700
     86 H15         20.1420    47.6440    42.2390 hc         1 9LZ       0.036700
     87 H16         19.5250    48.7430    44.4280 hc         1 9LZ       0.066700
     88 H17         21.0980    48.3110    45.0890 hc         1 9LZ       0.066700
     89 H18         20.9760    50.6850    44.3530 h1         1 9LZ       0.057200
     90 H19         20.5920    50.1740    42.6950 h1         1 9LZ       0.057200
     91 H20         22.9620    48.8880    43.1310 hn         1 9LZ       0.314500
     92 H21         24.8960    49.9600    42.0000 h1         1 9LZ       0.079700
     93 H22         26.6440    49.5500    43.8410 hc         1 9LZ       0.051700
     94 H23         25.4800    50.1340    45.0100 hc         1 9LZ       0.051700
     95 H24         24.1960    48.4510    46.1100 ha         1 9LZ       0.122000
     96 H25         22.9720    46.7140    47.3270 ha         1 9LZ       0.118000
     97 H26         22.0290    44.4160    47.4240 ha         1 9LZ       0.107000
     98 H27         22.2780    42.8780    45.4780 ha         1 9LZ       0.095000
     99 H28         23.4690    43.6370    43.4320 ha         1 9LZ       0.100000
    100 H29         24.6980    45.3820    42.2130 ha         1 9LZ       0.103000
    101 H30         25.6570    47.6630    42.1180 ha         1 9LZ       0.103000
    102 H31         25.3100    52.6190    43.1050 hn         1 9LZ       0.343500
    103 H32         29.2150    52.5230    40.7970 ha         1 9LZ       0.122500
    104 H33         30.2790    54.7390    40.6060 ha         1 9LZ       0.114500
    105 H34         25.9680    54.3120    43.0630 ha         1 9LZ       0.122500
    106 H35         27.0460    56.5030    42.8560 ha         1 9LZ       0.114500
    107 H36         30.0540    57.1690    40.7140 h1         1 9LZ       0.043200
    108 H37         28.6220    57.9100    41.4440 h1         1 9LZ       0.043200
    109 H38         29.7130    58.0340    43.5100 hn         1 9LZ       0.313500
    110 H39         31.8930    56.8520    45.1070 h1         1 9LZ       0.069700
    111 H40         33.9590    58.1610    43.3280 h1         1 9LZ       0.093200
    112 H41         33.8770    58.7540    45.0080 h1         1 9LZ       0.093200
    113 H42         30.9010    58.7760    45.7680 hn         1 9LZ       0.315500
    114 H43         30.9540    61.1670    46.0710 h1         1 9LZ       0.069700
    115 H44         28.8600    59.8830    45.4410 h1         1 9LZ       0.088700
    116 H45         28.6110    60.9850    44.0640 h1         1 9LZ       0.088700
    117 H46         30.0870    62.9610    43.9480 hn         1 9LZ       0.362500
    118 H47         34.0930    65.0190    44.7650 ha         1 9LZ       0.145000
    119 H48         34.1360    67.3090    43.7360 ha         1 9LZ       0.125000
    120 H49         30.0400    64.6350    43.2340 h4         1 9LZ       0.052100
@<TRIPOS>BOND
     1     1     2 1   
     2     2     3 1   
     3     2     4 1   
     4     4     5 1   
     5     4    75 1   
     6     4    76 1   
     7     5     6 1   
     8     5    77 1   
     9     5    78 1   
    10     6     7 1   
    11     6    10 1   
    12     6    79 1   
    13     7     8 1   
    14     7     9 1   
    15    10    11 1   
    16    10    80 1   
    17    11    12 2   
    18    11    13 1   
    19    13    14 1   
    20    13    81 1   
    21    14    15 1   
    22    14    18 1   
    23    14    82 1   
    24    15    16 1   
    25    15    17 1   
    26    18    19 1   
    27    18    83 1   
    28    18    84 1   
    29    19    20 1   
    30    19    85 1   
    31    19    86 1   
    32    20    21 1   
    33    20    87 1   
    34    20    88 1   
    35    21    22 1   
    36    21    89 1   
    37    21    90 1   
    38    22    23 1   
    39    22    91 1   
    40    23    24 2   
    41    23    25 1   
    42    25    26 1   
    43    25    37 1   
    44    25    92 1   
    45    26    27 1   
    46    26    93 1   
    47    26    94 1   
    48    27    28 ar  
    49    27    36 ar  
    50    28    29 ar  
    51    28    95 1   
    52    29    30 ar  
    53    29    34 ar  
    54    30    31 ar  
    55    30    96 1   
    56    31    32 ar  
    57    31    97 1   
    58    32    33 ar  
    59    32    98 1   
    60    33    34 ar  
    61    33    99 1   
    62    34    35 ar  
    63    35    36 ar  
    64    35   100 1   
    65    36   101 1   
    66    37    38 1   
    67    37   102 1   
    68    38    39 2   
    69    38    40 1   
    70    40    41 ar  
    71    40    43 ar  
    72    41    42 ar  
    73    41   103 1   
    74    42    45 ar  
    75    42   104 1   
    76    43    44 ar  
    77    43   105 1   
    78    44    45 ar  
    79    44   106 1   
    80    45    46 1   
    81    46    47 1   
    82    46   107 1   
    83    46   108 1   
    84    47    48 1   
    85    47   109 1   
    86    48    49 2   
    87    48    50 1   
    88    50    51 1   
    89    50    56 1   
    90    50   110 1   
    91    51    52 1   
    92    51   111 1   
    93    51   112 1   
    94    52    53 1   
    95    52    54 1   
    96    52    55 1   
    97    56    57 1   
    98    56   113 1   
    99    57    58 2   
   100    57    59 1   
   101    59    60 1   
   102    59    65 1   
   103    59   114 1   
   104    60    61 1   
   105    60   115 1   
   106    60   116 1   
   107    61    62 1   
   108    61    63 1   
   109    61    64 1   
   110    65    66 1   
   111    65   117 1   
   112    66    67 2   
   113    66    68 1   
   114    68    69 ar  
   115    68    74 ar  
   116    69    70 ar  
   117    69   118 1   
   118    70    71 ar  
   119    70   119 1   
   120    71    72 1   
   121    71    73 ar  
   122    73    74 ar  
   123    74   120 1   
@<TRIPOS>SUBSTRUCTURE
     1 9LZ         1 TEMP              0 ****  ****    0 ROOT
