@<TRIPOS>MOLECULE
9LZ
  120   123     1     0     0
SMALL
bcc


@<TRIPOS>ATOM
      1 OAA         12.9390    48.3990    40.8030 o          1 9LZ      -0.883800
      2 CBZ         13.8650    48.9990    41.3870 c          1 9LZ       0.923600
      3 OAN         13.8170    50.1540    41.8610 o          1 9LZ      -0.883800
      4 CBK         15.2220    48.2720    41.5070 c3         1 9LZ      -0.199400
      5 CBM         15.1430    46.7510    41.4560 c3         1 9LZ      -0.037400
      6 CCQ         16.4890    46.0220    41.5300 c3         1 9LZ      -0.040300
      7 CCB         17.3920    46.4080    40.3290 c          1 9LZ       0.927600
      8 OAP         18.4060    47.0970    40.5560 o          1 9LZ      -0.860800
      9 OAC         16.9940    46.0010    39.2180 o          1 9LZ      -0.860800
     10 NBV         17.1060    46.2410    42.8210 ns         1 9LZ      -0.530900
     11 CCC         18.2270    45.5290    43.1580 c          1 9LZ       0.777100
     12 OAD         18.5210    44.4650    42.6150 o          1 9LZ      -0.712100
     13 N           18.9550    46.0680    44.1620 ns         1 9LZ      -0.580900
     14 CA          20.1480    45.4750    44.7090 c3         1 9LZ      -0.006300
     15 C           20.4410    46.1030    46.1020 c          1 9LZ       0.921600
     16 O           19.6200    46.9380    46.5370 o          1 9LZ      -0.854300
     17 OXT         21.4640    45.6910    46.6760 o          1 9LZ      -0.854300
     18 CB          21.3460    45.5500    43.7460 c3         1 9LZ      -0.058400
     19 CBI         21.5500    46.8810    43.0300 c3         1 9LZ      -0.066400
     20 CBH         21.7130    48.0920    43.9380 c3         1 9LZ      -0.095400
     21 CBJ         21.8570    49.3990    43.1700 c3         1 9LZ       0.094000
     22 NBS         23.0700    49.4980    42.3830 ns         1 9LZ      -0.539900
     23 CCF         24.2110    50.0100    42.8530 c          1 9LZ       0.650100
     24 OAG         24.3480    50.4670    43.9810 o          1 9LZ      -0.623100
     25 CCR         25.3850    50.0060    41.8790 c3         1 9LZ       0.026700
     26 CBO         26.4510    49.0040    42.3510 c3         1 9LZ      -0.040100
     27 CCK         25.9180    47.6080    42.5050 ca         1 9LZ      -0.094300
     28 CBG         25.7280    47.0530    43.7430 ca         1 9LZ      -0.087000
     29 CCO         25.2370    45.7340    43.8950 ca         1 9LZ      -0.027000
     30 CBD         25.0580    45.1450    45.1680 ca         1 9LZ      -0.087000
     31 CAU         24.6010    43.8610    45.2850 ca         1 9LZ      -0.114000
     32 CAT         24.2970    43.1050    44.1330 ca         1 9LZ      -0.123000
     33 CBC         24.4510    43.6530    42.8880 ca         1 9LZ      -0.120000
     34 CCN         24.9240    44.9770    42.7380 ca         1 9LZ      -0.029000
     35 CBE         25.1060    45.5730    41.4680 ca         1 9LZ      -0.117000
     36 CBB         25.5900    46.8470    41.3560 ca         1 9LZ      -0.129000
     37 NBW         25.9150    51.3480    41.8290 ns         1 9LZ      -0.555900
     38 CCD         26.3410    51.9500    40.7020 c          1 9LZ       0.686700
     39 OAE         26.3520    51.3970    39.6110 o          1 9LZ      -0.640100
     40 CCL         26.8120    53.3590    40.8620 ca         1 9LZ      -0.156600
     41 CBA         27.7450    53.8540    39.9540 ca         1 9LZ      -0.087500
     42 CAX         28.2090    55.1540    40.0620 ca         1 9LZ      -0.125000
     43 CAZ         26.3340    54.2100    41.8570 ca         1 9LZ      -0.087500
     44 CAW         26.7890    55.5170    41.9500 ca         1 9LZ      -0.125000
     45 CCJ         27.7380    56.0040    41.0600 ca         1 9LZ      -0.071300
     46 CBN         28.2400    57.4280    41.1180 c3         1 9LZ       0.160300
     47 NBT         28.0810    58.0650    42.3980 ns         1 9LZ      -0.587900
     48 CCG         28.8080    57.6980    43.4690 c          1 9LZ       0.681100
     49 OAH         29.6370    56.8100    43.4250 o          1 9LZ      -0.563100
     50 CCS         28.4540    58.4580    44.7580 c3         1 9LZ       0.092700
     51 CBP         29.2700    57.9720    45.9540 c3         1 9LZ      -0.254600
     52 SCU         28.3810    56.7140    46.9010 s6         1 9LZ       1.209800
     53 OAQ         27.2590    57.4320    47.5410 o          1 9LZ      -0.697533
     54 OAK         29.3670    56.1940    47.8670 o          1 9LZ      -0.697533
     55 OAJ         27.9250    55.7120    45.9180 o          1 9LZ      -0.697533
     56 NBY         28.5280    59.8900    44.5520 ns         1 9LZ      -0.568900
     57 CCH         29.6160    60.4970    44.0540 c          1 9LZ       0.666100
     58 OAI         30.5990    59.8910    43.6680 o          1 9LZ      -0.598100
     59 CCT         29.4900    62.0160    43.9090 c3         1 9LZ       0.072700
     60 CBQ         29.0190    62.3030    42.4850 c3         1 9LZ      -0.259600
     61 SCV         28.7880    64.0620    42.1240 s6         1 9LZ       1.214800
     62 OAR         27.8630    64.5660    43.1530 o          1 9LZ      -0.699200
     63 OAM         28.2410    64.0960    40.7590 o          1 9LZ      -0.699200
     64 OAL         30.1460    64.6510    42.2170 o          1 9LZ      -0.699200
     65 NBX         30.7670    62.6370    44.1530 ns         1 9LZ      -0.544900
     66 CCE         31.4240    62.4280    45.3020 c          1 9LZ       0.678700
     67 OAF         30.9780    61.7260    46.2000 o          1 9LZ      -0.601100
     68 CCM         32.7550    63.0880    45.4370 ca         1 9LZ      -0.245900
     69 CAY         33.2780    63.3020    46.7130 ca         1 9LZ      -0.027000
     70 CAV         34.5250    63.8720    46.8550 ca         1 9LZ      -0.310300
     71 CCI         35.1990    64.1830    45.6840 ca         1 9LZ       0.622500
     72 FAS         36.4120    64.7250    45.7700 f          1 9LZ      -0.253200
     73 NBR         34.7520    63.9850    44.4770 nb         1 9LZ      -0.723000
     74 CBF         33.5430    63.4440    44.3520 ca         1 9LZ       0.472200
     75 H2          15.8570    48.6370    40.6900 hc         1 9LZ       0.031700
     76 H3          15.7090    48.6120    42.4250 hc         1 9LZ       0.031700
     77 H4          14.5090    46.3900    42.2720 hc         1 9LZ       0.022700
     78 H5          14.6520    46.4470    40.5330 hc         1 9LZ       0.022700
     79 H6          16.2730    44.9540    41.4460 h1         1 9LZ       0.035700
     80 H8          17.1160    47.2050    43.1200 hn         1 9LZ       0.284500
     81 H9          18.5960    46.8430    44.7020 hn         1 9LZ       0.328500
     82 H10         19.9700    44.4090    44.9030 h1         1 9LZ       0.019700
     83 H12         21.2240    44.7780    42.9830 hc         1 9LZ       0.027700
     84 H13         22.2450    45.2790    44.3010 hc         1 9LZ       0.027700
     85 H14         22.4360    46.7810    42.3940 hc         1 9LZ       0.036700
     86 H15         20.7130    47.0620    42.3470 hc         1 9LZ       0.036700
     87 H16         20.8360    48.1970    44.5780 hc         1 9LZ       0.066700
     88 H17         22.5690    47.9550    44.6060 hc         1 9LZ       0.066700
     89 H18         21.8240    50.2450    43.8560 h1         1 9LZ       0.057200
     90 H19         21.0150    49.5150    42.4850 h1         1 9LZ       0.057200
     91 H20         23.0580    49.1280    41.4470 hn         1 9LZ       0.314500
     92 H21         25.0530    49.7350    40.8760 h1         1 9LZ       0.079700
     93 H22         27.2660    49.0170    41.6230 hc         1 9LZ       0.051700
     94 H23         26.8650    49.3520    43.3000 hc         1 9LZ       0.051700
     95 H24         25.9700    47.6220    44.6340 ha         1 9LZ       0.140000
     96 H25         25.2920    45.7260    46.0530 ha         1 9LZ       0.136000
     97 H26         24.4700    43.4180    46.2640 ha         1 9LZ       0.125000
     98 H27         23.9360    42.0900    44.2390 ha         1 9LZ       0.113000
     99 H28         24.2140    43.0770    42.0020 ha         1 9LZ       0.118000
    100 H29         24.8660    45.0010    40.5800 ha         1 9LZ       0.121000
    101 H30         25.7360    47.2820    40.3740 ha         1 9LZ       0.121000
    102 H31         26.0550    51.8020    42.7180 hn         1 9LZ       0.343500
    103 H32         28.1250    53.2150    39.1670 ha         1 9LZ       0.140500
    104 H33         28.9530    55.5120    39.3600 ha         1 9LZ       0.132500
    105 H34         25.5810    53.8750    42.5600 ha         1 9LZ       0.140500
    106 H35         26.3930    56.1560    42.7290 ha         1 9LZ       0.132500
    107 H36         29.2880    57.4530    40.8100 h1         1 9LZ       0.043200
    108 H37         27.6930    58.0280    40.3890 h1         1 9LZ       0.043200
    109 H38         27.4000    58.8010    42.4880 hn         1 9LZ       0.313500
    110 H39         27.3940    58.2620    44.9420 h1         1 9LZ       0.069700
    111 H40         30.2260    57.5530    45.6440 h1         1 9LZ       0.093200
    112 H41         29.4670    58.7980    46.6390 h1         1 9LZ       0.093200
    113 H42         27.7820    60.4500    44.9330 hn         1 9LZ       0.315500
    114 H43         28.7380    62.3910    44.6120 h1         1 9LZ       0.069700
    115 H44         28.0580    61.8130    42.3180 h1         1 9LZ       0.088700
    116 H45         29.7310    61.9090    41.7570 h1         1 9LZ       0.088700
    117 H46         31.0310    63.3880    43.5250 hn         1 9LZ       0.362500
    118 H47         32.7070    63.0260    47.5890 ha         1 9LZ       0.163000
    119 H48         34.9620    64.0620    47.8250 ha         1 9LZ       0.143000
    120 H49         33.2150    63.2700    43.3330 h4         1 9LZ       0.052100
@<TRIPOS>BOND
     1     1     2 1   
     2     2     3 1   
     3     2     4 1   
     4     4     5 1   
     5     4    75 1   
     6     4    76 1   
     7     5     6 1   
     8     5    77 1   
     9     5    78 1   
    10     6     7 1   
    11     6    10 1   
    12     6    79 1   
    13     7     8 1   
    14     7     9 1   
    15    10    11 1   
    16    10    80 1   
    17    11    12 2   
    18    11    13 1   
    19    13    14 1   
    20    13    81 1   
    21    14    15 1   
    22    14    18 1   
    23    14    82 1   
    24    15    16 1   
    25    15    17 1   
    26    18    19 1   
    27    18    83 1   
    28    18    84 1   
    29    19    20 1   
    30    19    85 1   
    31    19    86 1   
    32    20    21 1   
    33    20    87 1   
    34    20    88 1   
    35    21    22 1   
    36    21    89 1   
    37    21    90 1   
    38    22    23 1   
    39    22    91 1   
    40    23    24 2   
    41    23    25 1   
    42    25    26 1   
    43    25    37 1   
    44    25    92 1   
    45    26    27 1   
    46    26    93 1   
    47    26    94 1   
    48    27    28 ar  
    49    27    36 ar  
    50    28    29 ar  
    51    28    95 1   
    52    29    30 ar  
    53    29    34 ar  
    54    30    31 ar  
    55    30    96 1   
    56    31    32 ar  
    57    31    97 1   
    58    32    33 ar  
    59    32    98 1   
    60    33    34 ar  
    61    33    99 1   
    62    34    35 ar  
    63    35    36 ar  
    64    35   100 1   
    65    36   101 1   
    66    37    38 1   
    67    37   102 1   
    68    38    39 2   
    69    38    40 1   
    70    40    41 ar  
    71    40    43 ar  
    72    41    42 ar  
    73    41   103 1   
    74    42    45 ar  
    75    42   104 1   
    76    43    44 ar  
    77    43   105 1   
    78    44    45 ar  
    79    44   106 1   
    80    45    46 1   
    81    46    47 1   
    82    46   107 1   
    83    46   108 1   
    84    47    48 1   
    85    47   109 1   
    86    48    49 2   
    87    48    50 1   
    88    50    51 1   
    89    50    56 1   
    90    50   110 1   
    91    51    52 1   
    92    51   111 1   
    93    51   112 1   
    94    52    53 1   
    95    52    54 1   
    96    52    55 1   
    97    56    57 1   
    98    56   113 1   
    99    57    58 2   
   100    57    59 1   
   101    59    60 1   
   102    59    65 1   
   103    59   114 1   
   104    60    61 1   
   105    60   115 1   
   106    60   116 1   
   107    61    62 1   
   108    61    63 1   
   109    61    64 1   
   110    65    66 1   
   111    65   117 1   
   112    66    67 2   
   113    66    68 1   
   114    68    69 ar  
   115    68    74 ar  
   116    69    70 ar  
   117    69   118 1   
   118    70    71 ar  
   119    70   119 1   
   120    71    72 1   
   121    71    73 ar  
   122    73    74 ar  
   123    74   120 1   
@<TRIPOS>SUBSTRUCTURE
     1 9LZ         1 TEMP              0 ****  ****    0 ROOT
