@<TRIPOS>MOLECULE
9M0
   43    48     1     0     0
SMALL
abcg2


@<TRIPOS>ATOM
      1 C4          -1.4920    -2.5190     0.3110 ca         1 9M0       0.194100
      2 C5          -2.5400    -1.8560    -0.3550 ca         1 9M0      -0.277600
      3 C6          -3.5080    -2.6830    -0.9450 ca         1 9M0       0.261000
      4 C8          -0.5310    -0.5180     0.9340 cc         1 9M0       0.076100
      5 C9          -1.5390     0.2560     0.3250 cc         1 9M0      -0.231600
      6 C10         -2.6040    -0.3730    -0.4270 c          1 9M0       0.635300
      7 C11          0.4060     0.3010     1.5080 cd         1 9M0      -0.179300
      8 C13         -1.1840     1.5870     0.5440 cd         1 9M0      -0.126500
      9 O7          -0.4920    -1.8610     0.9270 os         1 9M0      -0.191200
     10 C15         -1.8110     2.8340     0.1690 cd         1 9M0       0.493900
     11 C1          -3.4610    -4.0550    -0.8970 ca         1 9M0      -0.208000
     12 C2          -2.3990    -4.6620    -0.2330 ca         1 9M0      -0.028000
     13 C3          -1.4170    -3.9080     0.3700 ca         1 9M0      -0.174000
     14 N12         -0.0230     1.5690     1.2420 na         1 9M0      -0.080000
     15 O14         -3.4460     0.2320    -1.0620 o          1 9M0      -0.494100
     16 C16          1.6740    -0.0130     2.2240 c3         1 9M0       0.055200
     17 C17          2.7790    -0.4080     1.2720 ca         1 9M0      -0.084300
     18 C18          3.3600     0.5720     0.4490 ca         1 9M0      -0.092000
     19 C19          4.3440     0.1660    -0.4140 ca         1 9M0       0.055100
     20 C20          4.7620    -1.1550    -0.4890 ca         1 9M0       0.056100
     21 C21          4.2090    -2.1290     0.3020 ca         1 9M0      -0.094000
     22 C22          3.2010    -1.7260     1.1900 ca         1 9M0      -0.095000
     23 O23          5.0730     0.9160    -1.2760 os         1 9M0      -0.345100
     24 C24          5.8320     0.0000    -2.0550 c5         1 9M0       0.373600
     25 O25          5.7610    -1.2590    -1.4000 os         1 9M0      -0.343100
     26 S26         -0.8420     4.2240    -0.2140 ss         1 9M0      -0.058400
     27 C27         -2.2720     5.1270    -0.4660 cd         1 9M0      -0.255000
     28 C28         -3.3550     4.3290    -0.2670 cc         1 9M0       0.283900
     29 N29         -3.0890     3.0450     0.0930 nc         1 9M0      -0.581000
     30 F30         -4.5380    -2.1250    -1.5810 f          1 9M0      -0.149000
     31 H1          -4.2390    -4.6410    -1.3680 ha         1 9M0       0.138000
     32 H2          -2.3470    -5.7420    -0.1890 ha         1 9M0       0.122000
     33 H3          -0.5900    -4.3760     0.8870 ha         1 9M0       0.134000
     34 H4           0.4250     2.3900     1.6230 hn         1 9M0       0.355000
     35 H5           1.9800     0.8570     2.8110 hc         1 9M0       0.062700
     36 H6           1.4980    -0.8190     2.9380 hc         1 9M0       0.062700
     37 H7           3.0470     1.6080     0.4990 ha         1 9M0       0.126000
     38 H8           4.5330    -3.1590     0.2520 ha         1 9M0       0.135000
     39 H9           2.7420    -2.4700     1.8290 ha         1 9M0       0.122000
     40 H10          5.4020    -0.0780    -3.0590 h2         1 9M0       0.065700
     41 H11         -2.2450     6.1680    -0.7430 h4         1 9M0       0.165000
     42 H12         -4.3800     4.6540    -0.3690 h4         1 9M0       0.050100
     43 H13          6.8690     0.3310    -2.1080 h2         1 9M0       0.065700
@<TRIPOS>BOND
     1     1     2 ar  
     2     1     9 1   
     3     1    13 ar  
     4     2     3 ar  
     5     2     6 1   
     6     3    11 ar  
     7     3    30 1   
     8     4     5 1   
     9     4     7 2   
    10     4     9 1   
    11     5     6 1   
    12     5     8 2   
    13     6    15 2   
    14     7    14 1   
    15     7    16 1   
    16     8    10 1   
    17     8    14 1   
    18    10    26 1   
    19    10    29 2   
    20    11    12 ar  
    21    11    31 1   
    22    12    13 ar  
    23    12    32 1   
    24    13    33 1   
    25    14    34 1   
    26    16    17 1   
    27    16    35 1   
    28    16    36 1   
    29    17    18 ar  
    30    17    22 ar  
    31    18    19 ar  
    32    18    37 1   
    33    19    20 ar  
    34    19    23 1   
    35    20    21 ar  
    36    20    25 1   
    37    21    22 ar  
    38    21    38 1   
    39    22    39 1   
    40    23    24 1   
    41    24    25 1   
    42    24    40 1   
    43    24    43 1   
    44    26    27 1   
    45    27    28 2   
    46    27    41 1   
    47    28    29 1   
    48    28    42 1   
@<TRIPOS>SUBSTRUCTURE
     1 9M0         1 TEMP              0 ****  ****    0 ROOT
