@<TRIPOS>MOLECULE
9M0
   43    48     1     0     0
SMALL
No Charge or Current Charge


@<TRIPOS>ATOM
      1 C4          -1.3530    -2.3580     0.4800 ca         1 9M0       0.194100
      2 C5          -2.4980    -1.7760    -0.1290 ca         1 9M0      -0.277600
      3 C6          -3.3380    -2.5960    -0.9160 ca         1 9M0       0.261000
      4 C8          -0.5870    -0.3170     1.1990 cc         1 9M0       0.076100
      5 C9          -1.6600     0.3980     0.6760 cc         1 9M0      -0.231600
      6 C10         -2.7990    -0.3210     0.0810 c          1 9M0       0.635300
      7 C11          0.4210     0.4860     1.6370 cd         1 9M0      -0.179300
      8 C13         -1.2910     1.7370     0.7380 cd         1 9M0      -0.126500
      9 O7          -0.4690    -1.6750     1.3040 os         1 9M0      -0.191200
     10 C15         -1.9780     2.9230     0.2550 cd         1 9M0       0.493900
     11 C1          -3.0510    -3.9580    -1.0920 ca         1 9M0      -0.208000
     12 C2          -1.9280    -4.5290    -0.4830 ca         1 9M0      -0.028000
     13 C3          -1.0890    -3.7270     0.3020 ca         1 9M0      -0.174000
     14 N12         -0.0230     1.7890     1.3620 na         1 9M0      -0.080000
     15 O14         -3.8620     0.1880    -0.2380 o          1 9M0      -0.494100
     16 C16          1.7530     0.1360     2.2500 c3         1 9M0       0.055200
     17 C17          2.7430    -0.4040     1.2270 ca         1 9M0      -0.084300
     18 C18          3.5090     0.4900     0.4430 ca         1 9M0      -0.092000
     19 C19          4.3990    -0.0460    -0.4960 ca         1 9M0       0.055100
     20 C20          4.5360    -1.3940    -0.6700 ca         1 9M0       0.056100
     21 C21          3.7910    -2.3110     0.0820 ca         1 9M0      -0.094000
     22 C22          2.8880    -1.8030     1.0400 ca         1 9M0      -0.095000
     23 O23          5.1980     0.6670    -1.3300 os         1 9M0      -0.345100
     24 C24          5.9410    -0.3830    -2.0460 c5         1 9M0       0.373600
     25 O25          5.4380    -1.7050    -1.6350 os         1 9M0      -0.343100
     26 S26         -1.2540     4.5210     0.4680 ss         1 9M0      -0.058400
     27 C27         -2.6510     5.1840    -0.3550 cd         1 9M0      -0.255000
     28 C28         -3.5200     4.1870    -0.7160 cc         1 9M0       0.283900
     29 N29         -3.1420     2.9140    -0.3760 nc         1 9M0      -0.581000
     30 F30         -4.4310    -2.1010    -1.5370 f          1 9M0      -0.149000
     31 H1          -3.7080    -4.5710    -1.7050 ha         1 9M0       0.138000
     32 H2          -1.7090    -5.5870    -0.6160 ha         1 9M0       0.122000
     33 H3          -0.2190    -4.1700     0.7810 ha         1 9M0       0.134000
     34 H4           0.5030     2.6360     1.5550 hn         1 9M0       0.355000
     35 H5           2.1800     1.0160     2.7470 hc         1 9M0       0.062700
     36 H6           1.6030    -0.6010     3.0490 hc         1 9M0       0.062700
     37 H7           3.4120     1.5660     0.5580 ha         1 9M0       0.126000
     38 H8           3.9070    -3.3810    -0.0710 ha         1 9M0       0.135000
     39 H9           2.2950    -2.4960     1.6340 ha         1 9M0       0.122000
     40 H10          5.8050    -0.2580    -3.1270 h2         1 9M0       0.065700
     41 H11         -2.7520     6.2490    -0.5240 h4         1 9M0       0.165000
     42 H12         -4.4590     4.3200    -1.2370 h4         1 9M0       0.050100
     43 H13          7.0050    -0.3090    -1.7900 h2         1 9M0       0.065700
@<TRIPOS>BOND
     1     1     2 ar  
     2     1     9 1   
     3     1    13 ar  
     4     2     3 ar  
     5     2     6 1   
     6     3    11 ar  
     7     3    30 1   
     8     4     5 1   
     9     4     7 2   
    10     4     9 1   
    11     5     6 1   
    12     5     8 2   
    13     6    15 2   
    14     7    14 1   
    15     7    16 1   
    16     8    10 1   
    17     8    14 1   
    18    10    26 1   
    19    10    29 2   
    20    11    12 ar  
    21    11    31 1   
    22    12    13 ar  
    23    12    32 1   
    24    13    33 1   
    25    14    34 1   
    26    16    17 1   
    27    16    35 1   
    28    16    36 1   
    29    17    18 ar  
    30    17    22 ar  
    31    18    19 ar  
    32    18    37 1   
    33    19    20 ar  
    34    19    23 1   
    35    20    21 ar  
    36    20    25 1   
    37    21    22 ar  
    38    21    38 1   
    39    22    39 1   
    40    23    24 1   
    41    24    25 1   
    42    24    40 1   
    43    24    43 1   
    44    26    27 1   
    45    27    28 2   
    46    27    41 1   
    47    28    29 1   
    48    28    42 1   
@<TRIPOS>SUBSTRUCTURE
     1 9M0         1 TEMP              0 ****  ****    0 ROOT
