@<TRIPOS>MOLECULE
9M1
   55    58     1     0     0
SMALL
No Charge or Current Charge


@<TRIPOS>ATOM
      1 N3           0.6060    -0.0510    -1.3460 n          1 9M1      -0.393800
      2 C4          -2.5630     0.2940    -0.5710 cc         1 9M1      -0.101400
      3 C6           0.4340     0.2040     0.1060 c3         1 9M1       0.127000
      4 C7          -1.9160     0.4660    -1.9500 c3         1 9M1       0.022200
      5 C8           1.8470    -0.5720    -1.7930 c          1 9M1       0.620700
      6 C10         -4.0830     0.3300     1.1310 ca         1 9M1      -0.036200
      7 C13          3.1290     0.0110    -1.2300 ca         1 9M1      -0.132600
      8 C15          4.4090     1.8620    -0.2630 ca         1 9M1       0.125000
      9 C17          5.5630     1.0600    -0.2380 ca         1 9M1       0.148000
     10 C20          5.5120    -0.2570    -0.7210 ca         1 9M1      -0.137000
     11 C24         -2.8840    -0.0750    -3.0440 c3         1 9M1      -0.081100
     12 C26         -4.8590     1.5170    -0.8180 ca         1 9M1      -0.058000
     13 C28          0.7450    -4.0810     1.9230 c3         1 9M1       0.168600
     14 C31          1.5720    -4.2880     3.2010 c3         1 9M1      -0.102100
     15 O22          0.3930    -2.6890     1.8600 os         1 9M1      -0.449100
     16 C11         -0.3520    -2.2590     0.7920 c          1 9M1       0.598100
     17 O18         -0.6890    -2.9800    -0.1370 o          1 9M1      -0.475000
     18 C2          -0.5940    -0.7130     0.8520 c3         1 9M1      -0.077500
     19 C12         -0.6080    -0.3710    -2.1450 c3         1 9M1       0.090000
     20 C25         -1.6140     1.9640    -2.2180 c3         1 9M1      -0.081100
     21 C1          -2.0140    -0.2850     0.5800 cd         1 9M1      -0.064300
     22 N5          -2.9720    -0.3170     1.6160 na         1 9M1      -0.211700
     23 C27         -5.2620     0.6130     1.8330 ca         1 9M1      -0.131000
     24 C30         -6.2660     1.3550     1.1810 ca         1 9M1      -0.086000
     25 C29         -6.0590     1.8110    -0.1390 ca         1 9M1      -0.144000
     26 C9          -3.8840     0.7420    -0.1590 ca         1 9M1      -0.092800
     27 O16          1.8920    -1.4100    -2.6860 o          1 9M1      -0.587100
     28 C19          4.3030    -0.7760    -1.2210 ca         1 9M1      -0.055000
     29 F23          6.7290     1.5520     0.2390 f          1 9M1      -0.157000
     30 F21          4.4540     3.1390     0.1840 f          1 9M1      -0.158000
     31 C14          3.2000     1.3470    -0.7610 ca         1 9M1      -0.107000
     32 H1           1.3950     0.0670     0.6180 h1         1 9M1       0.059700
     33 H2           0.1480     1.2540     0.2490 h1         1 9M1       0.059700
     34 H3           6.4070    -0.8730    -0.7090 ha         1 9M1       0.139000
     35 H4          -3.8070     0.5030    -3.1220 hc         1 9M1       0.038700
     36 H5          -2.4160    -0.0470    -4.0360 hc         1 9M1       0.038700
     37 H6          -3.1610    -1.1160    -2.8340 hc         1 9M1       0.038700
     38 H7          -4.7060     1.9080    -1.8170 ha         1 9M1       0.114000
     39 H8           1.3420    -4.3750     1.0490 h1         1 9M1       0.051200
     40 H9          -0.1530    -4.7120     1.9600 h1         1 9M1       0.051200
     41 H10          1.8680    -5.3390     3.2950 hc         1 9M1       0.049367
     42 H11          2.4820    -3.6760     3.1750 hc         1 9M1       0.049367
     43 H12          0.9890    -4.0130     4.0870 hc         1 9M1       0.049367
     44 H13         -0.3920    -0.4590     1.9000 hc         1 9M1       0.077700
     45 H14         -0.3200    -0.2680    -3.1990 h1         1 9M1       0.060700
     46 H15         -0.8480    -1.4300    -2.0060 h1         1 9M1       0.060700
     47 H16         -0.9390     2.3720    -1.4580 hc         1 9M1       0.038700
     48 H17         -1.1390     2.0980    -3.1980 hc         1 9M1       0.038700
     49 H18         -2.5290     2.5660    -2.2050 hc         1 9M1       0.038700
     50 H19         -2.8390    -0.6640     2.5600 hn         1 9M1       0.351000
     51 H20         -5.3970     0.2790     2.8590 ha         1 9M1       0.114000
     52 H21         -7.1920     1.5910     1.7000 ha         1 9M1       0.111000
     53 H22         -6.8270     2.4030    -0.6320 ha         1 9M1       0.111000
     54 H23          4.2780    -1.7990    -1.5940 ha         1 9M1       0.136000
     55 H24          2.3300     1.9970    -0.7970 ha         1 9M1       0.142000
@<TRIPOS>BOND
     1     1     3 1   
     2     1     5 1   
     3     1    19 1   
     4     2     4 1   
     5     2    21 2   
     6     2    26 1   
     7     3    18 1   
     8     3    32 1   
     9     3    33 1   
    10     4    11 1   
    11     4    19 1   
    12     4    20 1   
    13     5     7 1   
    14     5    27 2   
    15     6    22 1   
    16     6    23 ar  
    17     6    26 ar  
    18     7    28 ar  
    19     7    31 ar  
    20     8     9 ar  
    21     8    30 1   
    22     8    31 ar  
    23     9    10 ar  
    24     9    29 1   
    25    10    28 ar  
    26    10    34 1   
    27    11    35 1   
    28    11    36 1   
    29    11    37 1   
    30    12    25 ar  
    31    12    26 ar  
    32    12    38 1   
    33    13    14 1   
    34    13    15 1   
    35    13    39 1   
    36    13    40 1   
    37    14    41 1   
    38    14    42 1   
    39    14    43 1   
    40    15    16 1   
    41    16    17 2   
    42    16    18 1   
    43    18    21 1   
    44    18    44 1   
    45    19    45 1   
    46    19    46 1   
    47    20    47 1   
    48    20    48 1   
    49    20    49 1   
    50    21    22 1   
    51    22    50 1   
    52    23    24 ar  
    53    23    51 1   
    54    24    25 ar  
    55    24    52 1   
    56    25    53 1   
    57    28    54 1   
    58    31    55 1   
@<TRIPOS>SUBSTRUCTURE
     1 9M1         1 TEMP              0 ****  ****    0 ROOT
