@<TRIPOS>MOLECULE
9M1
   55    58     1     0     0
SMALL
abcg2


@<TRIPOS>ATOM
      1 N3           0.5640    -0.3410    -0.8500 n          1 9M1      -0.393800
      2 C4          -2.5320     0.2860    -0.4510 cc         1 9M1      -0.101400
      3 C6           0.3550     0.1100     0.5170 c3         1 9M1       0.127000
      4 C7          -1.7680     0.1540    -1.7470 c3         1 9M1       0.022200
      5 C8           1.8060    -0.6050    -1.3200 c          1 9M1       0.620700
      6 C10         -4.1650     0.7090     1.1050 ca         1 9M1      -0.036200
      7 C13          2.9610     0.0260    -0.6070 ca         1 9M1      -0.132600
      8 C15          4.1180     1.9690     0.1670 ca         1 9M1       0.125000
      9 C17          5.1930     1.1810     0.5450 ca         1 9M1       0.148000
     10 C20          5.1650    -0.1830     0.3450 ca         1 9M1      -0.137000
     11 C24         -2.6680    -0.5020    -2.8070 c3         1 9M1      -0.081100
     12 C26         -4.7810     1.4840    -1.0950 ca         1 9M1      -0.058000
     13 C28          0.8020    -3.9680     1.0830 c3         1 9M1       0.168600
     14 C31          2.2390    -4.1780     0.6730 c3         1 9M1      -0.102100
     15 O22          0.5530    -2.5510     1.0950 os         1 9M1      -0.449100
     16 C11         -0.6880    -2.1310     1.2450 c          1 9M1       0.598100
     17 O18         -1.6390    -2.8530     1.4070 o          1 9M1      -0.475000
     18 C2          -0.7810    -0.6150     1.2370 c3         1 9M1      -0.077500
     19 C12         -0.5730    -0.8070    -1.6250 c3         1 9M1       0.090000
     20 C25         -1.2940     1.5220    -2.2480 c3         1 9M1      -0.081100
     21 C1          -2.1200    -0.1230     0.7910 cd         1 9M1      -0.064300
     22 N5          -3.1010     0.1170     1.7130 na         1 9M1      -0.211700
     23 C27         -5.3700     1.1460     1.6510 ca         1 9M1      -0.131000
     24 C30         -6.2720     1.7530     0.8010 ca         1 9M1      -0.086000
     25 C29         -5.9750     1.9260    -0.5600 ca         1 9M1      -0.144000
     26 C9          -3.8450     0.8480    -0.2650 ca         1 9M1      -0.092800
     27 O16          2.0260    -1.2900    -2.3070 o          1 9M1      -0.587100
     28 C19          4.0510    -0.7580    -0.2490 ca         1 9M1      -0.055000
     29 F23          6.2550     1.7630     1.1050 f          1 9M1      -0.157000
     30 F21          4.1840     3.2890     0.3570 f          1 9M1      -0.158000
     31 C14          2.9980     1.4030    -0.4000 ca         1 9M1      -0.107000
     32 H1           1.2690    -0.0330     1.0880 h1         1 9M1       0.059700
     33 H2           0.1310     1.1790     0.5530 h1         1 9M1       0.059700
     34 H3           6.0100    -0.7870     0.6460 ha         1 9M1       0.139000
     35 H4          -3.5610     0.0830    -3.0160 hc         1 9M1       0.038700
     36 H5          -2.1280    -0.6130    -3.7490 hc         1 9M1       0.038700
     37 H6          -2.9940    -1.4920    -2.4850 hc         1 9M1       0.038700
     38 H7          -4.5800     1.6510    -2.1450 ha         1 9M1       0.114000
     39 H8           0.1240    -4.4530     0.3790 h1         1 9M1       0.051200
     40 H9           0.6080    -4.3750     2.0770 h1         1 9M1       0.051200
     41 H10          2.4580    -5.2450     0.6780 hc         1 9M1       0.049367
     42 H11          2.4210    -3.8060    -0.3360 hc         1 9M1       0.049367
     43 H12          2.9320    -3.6910     1.3590 hc         1 9M1       0.049367
     44 H13         -0.6670    -0.3230     2.2900 hc         1 9M1       0.077700
     45 H14         -0.2050    -1.0040    -2.6300 h1         1 9M1       0.060700
     46 H15         -0.9330    -1.7740    -1.2530 h1         1 9M1       0.060700
     47 H16         -0.6170     2.0010    -1.5400 hc         1 9M1       0.038700
     48 H17         -0.7710     1.4250    -3.2020 hc         1 9M1       0.038700
     49 H18         -2.1360     2.1980    -2.4020 hc         1 9M1       0.038700
     50 H19         -3.0250    -0.0730     2.6990 hn         1 9M1       0.351000
     51 H20         -5.5860     1.0200     2.7050 ha         1 9M1       0.114000
     52 H21         -7.2170     2.1090     1.1900 ha         1 9M1       0.111000
     53 H22         -6.6960     2.4180    -1.2010 ha         1 9M1       0.111000
     54 H23          4.0360    -1.8250    -0.4200 ha         1 9M1       0.136000
     55 H24          2.1710     2.0410    -0.6860 ha         1 9M1       0.142000
@<TRIPOS>BOND
     1     1     3 1   
     2     1     5 1   
     3     1    19 1   
     4     2     4 1   
     5     2    21 2   
     6     2    26 1   
     7     3    18 1   
     8     3    32 1   
     9     3    33 1   
    10     4    11 1   
    11     4    19 1   
    12     4    20 1   
    13     5     7 1   
    14     5    27 2   
    15     6    22 1   
    16     6    23 ar  
    17     6    26 ar  
    18     7    28 ar  
    19     7    31 ar  
    20     8     9 ar  
    21     8    30 1   
    22     8    31 ar  
    23     9    10 ar  
    24     9    29 1   
    25    10    28 ar  
    26    10    34 1   
    27    11    35 1   
    28    11    36 1   
    29    11    37 1   
    30    12    25 ar  
    31    12    26 ar  
    32    12    38 1   
    33    13    14 1   
    34    13    15 1   
    35    13    39 1   
    36    13    40 1   
    37    14    41 1   
    38    14    42 1   
    39    14    43 1   
    40    15    16 1   
    41    16    17 2   
    42    16    18 1   
    43    18    21 1   
    44    18    44 1   
    45    19    45 1   
    46    19    46 1   
    47    20    47 1   
    48    20    48 1   
    49    20    49 1   
    50    21    22 1   
    51    22    50 1   
    52    23    24 ar  
    53    23    51 1   
    54    24    25 ar  
    55    24    52 1   
    56    25    53 1   
    57    28    54 1   
    58    31    55 1   
@<TRIPOS>SUBSTRUCTURE
     1 9M1         1 TEMP              0 ****  ****    0 ROOT
