@<TRIPOS>MOLECULE
9M2
   59    62     1     0     0
SMALL
abcg2


@<TRIPOS>ATOM
      1 C12          1.0510     4.0610     0.5890 ca         1 9M2      -0.195000
      2 C8           2.7910     0.0650     0.0320 ca         1 9M2      -0.033000
      3 C9           3.4560    -1.1630     0.2270 ca         1 9M2      -0.128000
      4 C10          0.9690     1.6270     0.6250 cp         1 9M2      -0.083000
      5 C11          1.6680     2.8230     0.7290 ca         1 9M2      -0.044000
      6 C7           1.6690     0.3320     0.7750 cp         1 9M2      -0.050000
      7 C6           1.2060    -0.6230     1.7370 ca         1 9M2      -0.069000
      8 N1           4.6850    -2.9440     0.2940 na         1 9M2       0.012500
      9 C5           1.8370    -1.8130     1.9530 ca         1 9M2      -0.097000
     10 C4           2.9860    -2.1060     1.1810 ca         1 9M2      -0.065000
     11 C13         -0.3030     4.0700     0.3420 ca         1 9M2       0.209000
     12 C14         -1.0520     2.9130     0.2210 ca         1 9M2      -0.254000
     13 C15         -0.4110     1.6850     0.3540 ca         1 9M2       0.188100
     14 N2           3.7550    -3.1970     1.2080 nc         1 9M2      -0.285400
     15 C3           4.5800    -1.7700    -0.3350 cc         1 9M2      -0.103300
     16 C2           5.5080    -1.3260    -1.4130 c3         1 9M2       0.234000
     17 N            5.9140     0.0510    -1.2260 n3         1 9M2      -0.708600
     18 C1           6.7420     0.2170    -0.0510 c3         1 9M2       0.147600
     19 C            6.5640     0.5700    -2.4090 c3         1 9M2       0.147600
     20 O           -1.0390     0.5100     0.2140 os         1 9M2      -0.342100
     21 C16         -2.4440     0.4760     0.0250 c3         1 9M2       0.162600
     22 C17         -2.8660    -0.9820    -0.0370 c3         1 9M2       0.007900
     23 C18         -4.3450    -1.1100    -0.1880 cc         1 9M2      -0.211300
     24 C22         -5.3110    -1.1300     0.8400 cc         1 9M2       0.266300
     25 C23         -5.0690    -1.0460     2.3080 c3         1 9M2      -0.120400
     26 N4          -6.5270    -1.2480     0.3410 nd         1 9M2      -0.522800
     27 N3          -6.3700    -1.3040    -0.9830 na         1 9M2       0.131800
     28 C21         -7.5230    -1.3730    -1.8460 c3         1 9M2       0.071900
     29 C19         -5.0760    -1.2160    -1.3550 cd         1 9M2      -0.124300
     30 C20         -4.6360    -1.2400    -2.7750 c3         1 9M2      -0.032800
     31 H1           1.6110     4.9810     0.6840 ha         1 9M2       0.133000
     32 H2           3.1650     0.7750    -0.6940 ha         1 9M2       0.128000
     33 H3           2.7290     2.7880     0.9420 ha         1 9M2       0.123000
     34 H4           0.3330    -0.3820     2.3280 ha         1 9M2       0.114000
     35 H5           5.4010    -3.6370     0.1240 hn         1 9M2       0.365000
     36 H6           1.4720    -2.5110     2.6950 ha         1 9M2       0.124000
     37 H7          -2.1110     2.9890     0.0120 ha         1 9M2       0.136000
     38 H8           6.3650    -2.0210    -1.4650 h1         1 9M2       0.041700
     39 H9           4.9930    -1.4020    -2.3750 h1         1 9M2       0.041700
     40 H11          7.6940    -0.3350    -0.1150 h1         1 9M2       0.034700
     41 H12          6.9750     1.2720     0.0920 h1         1 9M2       0.034700
     42 H13          6.2160    -0.1280     0.8400 h1         1 9M2       0.034700
     43 H14          5.8930     0.5050    -3.2660 h1         1 9M2       0.034700
     44 H15          6.8150     1.6210    -2.2620 h1         1 9M2       0.034700
     45 H16          7.4940     0.0380    -2.6660 h1         1 9M2       0.034700
     46 H17         -2.9540     0.9870     0.8500 h1         1 9M2       0.038700
     47 H18         -2.7210     0.9880    -0.9040 h1         1 9M2       0.038700
     48 H19         -2.3520    -1.4710    -0.8680 hc         1 9M2       0.059700
     49 H20         -2.5380    -1.4870     0.8750 hc         1 9M2       0.059700
     50 H21         -4.3130    -1.7650     2.6270 hc         1 9M2       0.047033
     51 H22         -4.7090    -0.0570     2.5990 hc         1 9M2       0.047033
     52 H23         -5.9820    -1.2460     2.8680 hc         1 9M2       0.047033
     53 H24         -7.8810    -0.3790    -2.1140 h1         1 9M2       0.055367
     54 H25         -7.2730    -1.9110    -2.7570 h1         1 9M2       0.055367
     55 H26         -8.3170    -1.9090    -1.3340 h1         1 9M2       0.055367
     56 H27         -4.9650    -2.1450    -3.2890 hc         1 9M2       0.051700
     57 H28         -5.0220    -0.3870    -3.3340 hc         1 9M2       0.051700
     58 H29         -3.5490    -1.2060    -2.8330 hc         1 9M2       0.051700
     59 F           -0.9370     5.2460     0.2090 f          1 9M2      -0.181000
@<TRIPOS>BOND
     1     1     5 ar  
     2     1    11 ar  
     3     1    31 1   
     4     2     3 ar  
     5     2     6 ar  
     6     2    32 1   
     7     3    10 ar  
     8     3    15 2   
     9     4     5 ar  
    10     4     6 1   
    11     4    13 ar  
    12     5    33 1   
    13     6     7 ar  
    14     7     9 ar  
    15     7    34 1   
    16     8    14 1   
    17     8    15 1   
    18     8    35 1   
    19     9    10 ar  
    20     9    36 1   
    21    10    14 2   
    22    11    12 ar  
    23    11    59 1   
    24    12    13 ar  
    25    12    37 1   
    26    13    20 1   
    27    15    16 1   
    28    16    17 1   
    29    16    38 1   
    30    16    39 1   
    31    17    18 1   
    32    17    19 1   
    33    18    40 1   
    34    18    41 1   
    35    18    42 1   
    36    19    43 1   
    37    19    44 1   
    38    19    45 1   
    39    20    21 1   
    40    21    22 1   
    41    21    46 1   
    42    21    47 1   
    43    22    23 1   
    44    22    48 1   
    45    22    49 1   
    46    23    24 1   
    47    23    29 2   
    48    24    25 1   
    49    24    26 2   
    50    25    50 1   
    51    25    51 1   
    52    25    52 1   
    53    26    27 1   
    54    27    28 1   
    55    27    29 1   
    56    28    53 1   
    57    28    54 1   
    58    28    55 1   
    59    29    30 1   
    60    30    56 1   
    61    30    57 1   
    62    30    58 1   
@<TRIPOS>SUBSTRUCTURE
     1 9M2         1 TEMP              0 ****  ****    0 ROOT
