@<TRIPOS>MOLECULE
9M2
   59    62     1     0     0
SMALL
No Charge or Current Charge


@<TRIPOS>ATOM
      1 C12          1.0960     4.0740     0.3780 ca         1 9M2      -0.195000
      2 C8           2.8470     0.0310    -0.0580 ca         1 9M2      -0.033000
      3 C9           3.4770    -1.2040     0.1350 ca         1 9M2      -0.128000
      4 C10          0.9580     1.6250     0.4950 cp         1 9M2      -0.083000
      5 C11          1.7150     2.8230     0.5250 ca         1 9M2      -0.044000
      6 C7           1.6550     0.3090     0.6620 cp         1 9M2      -0.050000
      7 C6           1.1670    -0.6860     1.5600 ca         1 9M2      -0.069000
      8 N1           4.8170    -3.0090     0.1250 na         1 9M2       0.012500
      9 C5           1.8340    -1.9190     1.7290 ca         1 9M2      -0.097000
     10 C4           3.0040    -2.1620     0.9960 ca         1 9M2      -0.065000
     11 C13         -0.2890     4.1510     0.1940 ca         1 9M2       0.209000
     12 C14         -1.0670     2.9880     0.1500 ca         1 9M2      -0.254000
     13 C15         -0.4490     1.7280     0.2980 ca         1 9M2       0.188100
     14 N2           3.7950    -3.3140     1.0360 nc         1 9M2      -0.285400
     15 C3           4.6590    -1.7470    -0.4380 cc         1 9M2      -0.103300
     16 C2           5.5790    -1.1360    -1.4680 c3         1 9M2       0.234000
     17 N            6.2030     0.1370    -1.0280 n3         1 9M2      -0.708600
     18 C1           7.0240    -0.0030     0.1970 c3         1 9M2       0.147600
     19 C            6.9340     0.8140    -2.1210 c3         1 9M2       0.147600
     20 O           -1.1690     0.5510     0.2270 os         1 9M2      -0.342100
     21 C16         -2.5940     0.5270     0.0440 c3         1 9M2       0.162600
     22 C17         -3.0400    -0.9470     0.0320 c3         1 9M2       0.007900
     23 C18         -4.5340    -1.1000    -0.1430 cc         1 9M2      -0.211300
     24 C22         -5.4830    -1.1160     0.9020 cc         1 9M2       0.266300
     25 C23         -5.1170    -0.9770     2.3550 c3         1 9M2      -0.120400
     26 N4          -6.7260    -1.2640     0.4950 nd         1 9M2      -0.522800
     27 N3          -6.5860    -1.3500    -0.8820 na         1 9M2       0.131800
     28 C21         -7.7620    -1.5280    -1.7480 c3         1 9M2       0.071900
     29 C19         -5.2510    -1.2470    -1.2950 cd         1 9M2      -0.124300
     30 C20         -4.7860    -1.2960    -2.7300 c3         1 9M2      -0.032800
     31 H1           1.6890     4.9850     0.4080 ha         1 9M2       0.133000
     32 H2           3.2630     0.7580    -0.7520 ha         1 9M2       0.128000
     33 H3           2.7920     2.7770     0.6770 ha         1 9M2       0.123000
     34 H4           0.2680    -0.4920     2.1400 ha         1 9M2       0.114000
     35 H5           5.5630    -3.6720    -0.0670 hn         1 9M2       0.365000
     36 H6           1.4480    -2.6650     2.4190 ha         1 9M2       0.124000
     37 H7          -2.1360     3.0850    -0.0030 ha         1 9M2       0.136000
     38 H8           6.3590    -1.8650    -1.7280 h1         1 9M2       0.041700
     39 H9           4.9880    -0.9630    -2.3780 h1         1 9M2       0.041700
     40 H11          7.8680    -0.6860     0.0270 h1         1 9M2       0.034700
     41 H12          7.4280     0.9700     0.5060 h1         1 9M2       0.034700
     42 H13          6.4270    -0.3940     1.0310 h1         1 9M2       0.034700
     43 H14          6.2750     0.9830    -2.9840 h1         1 9M2       0.034700
     44 H15          7.3120     1.7900    -1.7900 h1         1 9M2       0.034700
     45 H16          7.7890     0.2090    -2.4550 h1         1 9M2       0.034700
     46 H17         -3.1000     1.0560     0.8620 h1         1 9M2       0.038700
     47 H18         -2.8720     0.9990    -0.9080 h1         1 9M2       0.038700
     48 H19         -2.5160    -1.4690    -0.7780 hc         1 9M2       0.059700
     49 H20         -2.7140    -1.4270     0.9620 hc         1 9M2       0.059700
     50 H21         -4.5070    -1.8260     2.6840 hc         1 9M2       0.047033
     51 H22         -4.5470    -0.0580     2.5290 hc         1 9M2       0.047033
     52 H23         -6.0110    -0.9410     2.9890 hc         1 9M2       0.047033
     53 H24         -7.9140    -0.6210    -2.3450 h1         1 9M2       0.055367
     54 H25         -7.5970    -2.3810    -2.4170 h1         1 9M2       0.055367
     55 H26         -8.6540    -1.7140    -1.1380 h1         1 9M2       0.055367
     56 H27         -4.7720    -2.3280    -3.1010 hc         1 9M2       0.051700
     57 H28         -5.4450    -0.7120    -3.3830 hc         1 9M2       0.051700
     58 H29         -3.7740    -0.8880    -2.8380 hc         1 9M2       0.051700
     59 F           -0.8810     5.3560     0.0520 f          1 9M2      -0.181000
@<TRIPOS>BOND
     1     1     5 ar  
     2     1    11 ar  
     3     1    31 1   
     4     2     3 ar  
     5     2     6 ar  
     6     2    32 1   
     7     3    10 ar  
     8     3    15 2   
     9     4     5 ar  
    10     4     6 1   
    11     4    13 ar  
    12     5    33 1   
    13     6     7 ar  
    14     7     9 ar  
    15     7    34 1   
    16     8    14 1   
    17     8    15 1   
    18     8    35 1   
    19     9    10 ar  
    20     9    36 1   
    21    10    14 2   
    22    11    12 ar  
    23    11    59 1   
    24    12    13 ar  
    25    12    37 1   
    26    13    20 1   
    27    15    16 1   
    28    16    17 1   
    29    16    38 1   
    30    16    39 1   
    31    17    18 1   
    32    17    19 1   
    33    18    40 1   
    34    18    41 1   
    35    18    42 1   
    36    19    43 1   
    37    19    44 1   
    38    19    45 1   
    39    20    21 1   
    40    21    22 1   
    41    21    46 1   
    42    21    47 1   
    43    22    23 1   
    44    22    48 1   
    45    22    49 1   
    46    23    24 1   
    47    23    29 2   
    48    24    25 1   
    49    24    26 2   
    50    25    50 1   
    51    25    51 1   
    52    25    52 1   
    53    26    27 1   
    54    27    28 1   
    55    27    29 1   
    56    28    53 1   
    57    28    54 1   
    58    28    55 1   
    59    29    30 1   
    60    30    56 1   
    61    30    57 1   
    62    30    58 1   
@<TRIPOS>SUBSTRUCTURE
     1 9M2         1 TEMP              0 ****  ****    0 ROOT
