@<TRIPOS>MOLECULE
9M3
   77    81     1     0     0
SMALL
bcc


@<TRIPOS>ATOM
      1 C5           3.1670     4.7230    -0.4670 ca         1 9M3      -0.128000
      2 C6           4.0960     3.7020    -0.5610 ca         1 9M3      -0.102000
      3 C2           2.3860     2.0720     0.0260 ca         1 9M3      -0.058300
      4 C4           1.8530     4.4330    -0.1460 ca         1 9M3      -0.095000
      5 O43          6.3340     2.3010     0.7630 o          1 9M3      -0.585100
      6 C31          5.8820     1.3380     0.1680 c          1 9M3       0.687700
      7 C32          6.6700     0.0760     0.0270 ca         1 9M3      -0.156600
      8 C37          7.9460     0.0450     0.5910 ca         1 9M3      -0.086500
      9 C36          8.7270    -1.0920     0.5180 ca         1 9M3      -0.139500
     10 C35          8.2740    -2.2530    -0.1140 ca         1 9M3      -0.036300
     11 C38          9.1650    -3.4870    -0.1640 c3         1 9M3      -0.004700
     12 C42          8.4890    -4.6680    -0.8590 c3         1 9M3      -0.083433
     13 C41         10.4540    -3.1450    -0.9250 c3         1 9M3      -0.083433
     14 C39          9.5180    -3.9120     1.2690 c3         1 9M3      -0.083433
     15 C34          7.0010    -2.2140    -0.6780 ca         1 9M3      -0.139500
     16 C33          6.2140    -1.0730    -0.6120 ca         1 9M3      -0.086500
     17 C7           3.7120     2.3910    -0.3020 ca         1 9M3       0.044600
     18 C1           2.0440     0.6490     0.3700 c3         1 9M3      -0.045800
     19 C3           1.4520     3.1160     0.0680 cp         1 9M3      -0.134500
     20 C13          0.0120     2.8800     0.3270 cp         1 9M3       0.809500
     21 N8          -0.5850     3.7030     1.1750 nb         1 9M3      -0.832000
     22 N12         -0.5770     1.9010    -0.3380 nb         1 9M3      -0.838000
     23 C11         -1.8840     1.7520    -0.0760 ca         1 9M3       0.960900
     24 N10         -2.5850     2.5010     0.7540 nb         1 9M3      -0.869000
     25 C9          -1.8930     3.4760     1.3520 ca         1 9M3       0.962900
     26 N14         -2.5510     4.2730     2.1900 nv         1 9M3      -0.954500
     27 N24         -2.4710     0.7360    -0.7550 nu         1 9M3      -0.730300
     28 C16         -3.7760     0.2600    -0.7560 ca         1 9M3       0.197600
     29 C21         -4.8030     0.7300     0.0660 ca         1 9M3      -0.181000
     30 C20         -6.0630     0.1570    -0.0110 ca         1 9M3      -0.063500
     31 C19         -6.3450    -0.8720    -0.9020 ca         1 9M3      -0.178600
     32 C18         -5.3250    -1.3180    -1.7380 ca         1 9M3      -0.063500
     33 C17         -4.0590    -0.7760    -1.6550 ca         1 9M3      -0.181000
     34 C22         -7.7260    -1.4060    -1.0820 c          1 9M3       0.690700
     35 O29         -8.1960    -1.4930    -2.2100 o          1 9M3      -0.595100
     36 N23         -8.4280    -1.7250     0.0290 n          1 9M3      -0.477800
     37 C28         -9.8340    -2.0800    -0.0580 c6         1 9M3       0.059500
     38 C27        -10.0340    -3.5420     0.2990 c6         1 9M3       0.105900
     39 O26         -9.4990    -3.8350     1.5720 os         1 9M3      -0.398600
     40 C25         -8.1250    -3.5290     1.6310 c6         1 9M3       0.105900
     41 C24         -7.8500    -2.0640     1.3200 c6         1 9M3       0.059500
     42 H1           3.4680     5.7440    -0.6590 ha         1 9M3       0.138000
     43 H2           5.1140     3.9250    -0.8430 ha         1 9M3       0.152000
     44 H3           1.1210     5.2270    -0.0860 ha         1 9M3       0.145000
     45 H4           8.3310     0.9210     1.0940 ha         1 9M3       0.139000
     46 H5           9.7110    -1.0680     0.9690 ha         1 9M3       0.134500
     47 H6           8.2330    -4.4470    -1.8960 hc         1 9M3       0.037033
     48 H7           9.1670    -5.5230    -0.8680 hc         1 9M3       0.037033
     49 H8           7.5790    -4.9770    -0.3420 hc         1 9M3       0.037033
     50 H9          11.0020    -2.3250    -0.4580 hc         1 9M3       0.037033
     51 H10         11.1160    -4.0120    -0.9480 hc         1 9M3       0.037033
     52 H11         10.2410    -2.8580    -1.9560 hc         1 9M3       0.037033
     53 H12          8.6210    -4.1740     1.8330 hc         1 9M3       0.037033
     54 H13         10.1680    -4.7890     1.2500 hc         1 9M3       0.037033
     55 H14         10.0410    -3.1270     1.8150 hc         1 9M3       0.037033
     56 H15          6.5940    -3.0790    -1.1810 ha         1 9M3       0.134500
     57 H16          5.2390    -1.1220    -1.0800 ha         1 9M3       0.139000
     58 H17          4.3080     0.4890    -0.8080 hn         1 9M3       0.320500
     59 H18          1.9710     0.0200    -0.5200 hc         1 9M3       0.045700
     60 H19          2.8140     0.2170     1.0110 hc         1 9M3       0.045700
     61 H20          1.0980     0.5660     0.8940 hc         1 9M3       0.045700
     62 H21         -2.0740     5.0250     2.6560 hn         1 9M3       0.455300
     63 H22         -3.5340     4.1440     2.3560 hn         1 9M3       0.455300
     64 H23         -1.8350     0.2600    -1.3770 hn         1 9M3       0.459800
     65 H24         -4.6290     1.5380     0.7570 ha         1 9M3       0.151500
     66 H25         -6.8400     0.5450     0.6360 ha         1 9M3       0.142000
     67 H26         -5.5110    -2.1060    -2.4570 ha         1 9M3       0.142000
     68 H27         -3.2750    -1.1530    -2.3020 ha         1 9M3       0.151500
     69 H28        -10.3900    -1.4490     0.6430 h1         1 9M3       0.065950
     70 H29        -10.2090    -1.8810    -1.0580 h1         1 9M3       0.065950
     71 H30        -11.0990    -3.7760     0.3310 h1         1 9M3       0.053950
     72 H31         -9.5700    -4.1750    -0.4710 h1         1 9M3       0.053950
     73 H32         -7.7800    -3.7580     2.6400 h1         1 9M3       0.053950
     74 H33         -7.5590    -4.1570     0.9280 h1         1 9M3       0.053950
     75 H34         -6.7740    -1.9040     1.3190 h1         1 9M3       0.065950
     76 H35         -8.2840    -1.4250     2.0940 h1         1 9M3       0.065950
     77 N30          4.6440     1.3410    -0.3920 ns         1 9M3      -0.485100
@<TRIPOS>BOND
     1     1     2 ar  
     2     1     4 ar  
     3     1    42 1   
     4     2    17 ar  
     5     2    43 1   
     6     3    17 ar  
     7     3    18 1   
     8     3    19 ar  
     9     4    19 ar  
    10     4    44 1   
    11     5     6 2   
    12     6     7 1   
    13     6    77 1   
    14     7     8 ar  
    15     7    16 ar  
    16     8     9 ar  
    17     8    45 1   
    18     9    10 ar  
    19     9    46 1   
    20    10    11 1   
    21    10    15 ar  
    22    11    12 1   
    23    11    13 1   
    24    11    14 1   
    25    12    47 1   
    26    12    48 1   
    27    12    49 1   
    28    13    50 1   
    29    13    51 1   
    30    13    52 1   
    31    14    53 1   
    32    14    54 1   
    33    14    55 1   
    34    15    16 ar  
    35    15    56 1   
    36    16    57 1   
    37    17    77 1   
    38    18    59 1   
    39    18    60 1   
    40    18    61 1   
    41    19    20 1   
    42    20    21 ar  
    43    20    22 ar  
    44    21    25 ar  
    45    22    23 ar  
    46    23    24 ar  
    47    23    27 1   
    48    24    25 ar  
    49    25    26 1   
    50    26    62 1   
    51    26    63 1   
    52    27    28 1   
    53    27    64 1   
    54    28    29 ar  
    55    28    33 ar  
    56    29    30 ar  
    57    29    65 1   
    58    30    31 ar  
    59    30    66 1   
    60    31    32 ar  
    61    31    34 1   
    62    32    33 ar  
    63    32    67 1   
    64    33    68 1   
    65    34    35 2   
    66    34    36 1   
    67    36    37 1   
    68    36    41 1   
    69    37    38 1   
    70    37    69 1   
    71    37    70 1   
    72    38    39 1   
    73    38    71 1   
    74    38    72 1   
    75    39    40 1   
    76    40    41 1   
    77    40    73 1   
    78    40    74 1   
    79    41    75 1   
    80    41    76 1   
    81    58    77 1   
@<TRIPOS>SUBSTRUCTURE
     1 9M3         1 TEMP              0 ****  ****    0 ROOT
