@<TRIPOS>MOLECULE
9M3
   77    81     1     0     0
SMALL
No Charge or Current Charge


@<TRIPOS>ATOM
      1 C5           3.2970     4.9970    -0.3890 ca         1 9M3      -0.110000
      2 C6           4.2420     3.9660    -0.3390 ca         1 9M3      -0.084000
      3 C2           2.4770     2.3590     0.2130 ca         1 9M3      -0.058300
      4 C4           1.9460     4.7190    -0.1580 ca         1 9M3      -0.077000
      5 O43          6.8510     2.5820     0.3190 o          1 9M3      -0.585100
      6 C31          6.1840     1.5680     0.1390 c          1 9M3       0.620700
      7 C32          6.8380     0.1980     0.0670 ca         1 9M3      -0.156600
      8 C37          8.2370     0.0850     0.2070 ca         1 9M3      -0.068500
      9 C36          8.8710    -1.1670     0.1460 ca         1 9M3      -0.121500
     10 C35          8.1340    -2.3550    -0.0560 ca         1 9M3      -0.036300
     11 C38          8.8770    -3.7170    -0.1160 c3         1 9M3      -0.004700
     12 C42          7.9220    -4.9230    -0.3430 c3         1 9M3      -0.083433
     13 C41          9.9000    -3.6920    -1.2840 c3         1 9M3      -0.083433
     14 C39          9.6290    -3.9510     1.2220 c3         1 9M3      -0.083433
     15 C34          6.7310    -2.2390    -0.1960 ca         1 9M3      -0.121500
     16 C33          6.0930    -0.9870    -0.1360 ca         1 9M3      -0.068500
     17 C7           3.8490     2.6470    -0.0300 ca         1 9M3      -0.048000
     18 C1           2.0710     0.9310     0.6080 c3         1 9M3      -0.045800
     19 C3           1.5000     3.4040     0.1260 cp         1 9M3      -0.134500
     20 C13          0.0260     3.1770     0.3100 cp         1 9M3       0.283500
     21 N8          -0.6520     4.0510     1.0830 nb         1 9M3      -0.306000
     22 N12         -0.5600     2.1430    -0.3310 nb         1 9M3      -0.312000
     23 C11         -1.8810     2.0130    -0.1410 ca         1 9M3       0.434900
     24 N10         -2.6440     2.8320     0.5990 nb         1 9M3      -0.343000
     25 C9          -1.9650     3.8210     1.1830 ca         1 9M3       0.436900
     26 N14         -2.6780     4.6780     1.9430 nv         1 9M3      -1.064900
     27 N24         -2.4730     0.9680    -0.8280 nu         1 9M3      -0.923900
     28 C16         -3.7500     0.3990    -0.8440 ca         1 9M3       0.336000
     29 C21         -4.6210     0.4650     0.2570 ca         1 9M3      -0.163000
     30 C20         -5.8910    -0.1370     0.2030 ca         1 9M3      -0.045500
     31 C19         -6.3040    -0.8380    -0.9520 ca         1 9M3      -0.178600
     32 C18         -5.4290    -0.8930    -2.0570 ca         1 9M3      -0.045500
     33 C17         -4.1610    -0.2900    -1.9950 ca         1 9M3      -0.163000
     34 C22         -7.6730    -1.4760    -1.0520 c          1 9M3       0.623700
     35 O29         -8.2550    -1.5230    -2.1300 o          1 9M3      -0.595100
     36 N23         -8.3060    -1.9240     0.1320 n          1 9M3      -0.410800
     37 C28         -9.7580    -2.2770     0.1460 c6         1 9M3       0.059500
     38 C27         -9.9810    -3.8100     0.2140 c6         1 9M3       0.129100
     39 O26         -9.2680    -4.3590     1.3430 os         1 9M3      -0.445000
     40 C25         -7.8430    -4.1300     1.2760 c6         1 9M3       0.129100
     41 C24         -7.5410    -2.6080     1.2230 c6         1 9M3       0.059500
     42 H1           3.6110     6.0110    -0.6240 ha         1 9M3       0.120000
     43 H2           5.2770     4.2110    -0.5570 ha         1 9M3       0.134000
     44 H3           1.2260     5.5320    -0.2250 ha         1 9M3       0.127000
     45 H4           8.8470     0.9730     0.3640 ha         1 9M3       0.121000
     46 H5           9.9510    -1.2030     0.2590 ha         1 9M3       0.116500
     47 H6           7.3810    -4.8270    -1.2930 hc         1 9M3       0.037033
     48 H7           8.4840    -5.8650    -0.3790 hc         1 9M3       0.037033
     49 H8           7.1910    -5.0080     0.4700 hc         1 9M3       0.037033
     50 H9          10.6640    -2.9200    -1.1380 hc         1 9M3       0.037033
     51 H10         10.4180    -4.6550    -1.3730 hc         1 9M3       0.037033
     52 H11          9.3940    -3.4910    -2.2360 hc         1 9M3       0.037033
     53 H12          8.9300    -3.9340     2.0670 hc         1 9M3       0.037033
     54 H13         10.1380    -4.9230     1.2230 hc         1 9M3       0.037033
     55 H14         10.3900    -3.1810     1.3990 hc         1 9M3       0.037033
     56 H15          6.1040    -3.1110    -0.3550 ha         1 9M3       0.116500
     57 H16          5.0120    -0.9630    -0.2530 ha         1 9M3       0.121000
     58 H17          4.3850     0.6680    -0.0890 hn         1 9M3       0.154000
     59 H18          1.8200     0.3340    -0.2770 hc         1 9M3       0.045700
     60 H19          2.8590     0.4030     1.1570 hc         1 9M3       0.045700
     61 H20          1.2020     0.9250     1.2760 hc         1 9M3       0.045700
     62 H21         -2.2470     5.5640     2.1930 hn         1 9M3       0.510500
     63 H22         -3.6900     4.6810     1.8400 hn         1 9M3       0.510500
     64 H23         -1.8430     0.5740    -1.5240 hn         1 9M3       0.515000
     65 H24         -4.3210     0.9720     1.1680 ha         1 9M3       0.133500
     66 H25         -6.5540    -0.0430     1.0610 ha         1 9M3       0.124000
     67 H26         -5.7280    -1.4130    -2.9660 ha         1 9M3       0.124000
     68 H27         -3.5000    -0.3530    -2.8550 ha         1 9M3       0.133500
     69 H28        -10.2260    -1.8110     1.0250 h1         1 9M3       0.065950
     70 H29        -10.2700    -1.8720    -0.7380 h1         1 9M3       0.065950
     71 H30        -11.0530    -4.0290     0.3220 h1         1 9M3       0.053950
     72 H31         -9.6240    -4.2860    -0.7110 h1         1 9M3       0.053950
     73 H32         -7.3640    -4.5780     2.1580 h1         1 9M3       0.053950
     74 H33         -7.4400    -4.6250     0.3810 h1         1 9M3       0.053950
     75 H34         -6.4590    -2.4860     1.0850 h1         1 9M3       0.065950
     76 H35         -7.8030    -2.1520     2.1880 h1         1 9M3       0.065950
     77 N30          4.8000     1.5830     0.0070 ns         1 9M3      -0.159000
@<TRIPOS>BOND
     1     1     2 ar  
     2     1     4 ar  
     3     1    42 1   
     4     2    17 ar  
     5     2    43 1   
     6     3    17 ar  
     7     3    18 1   
     8     3    19 ar  
     9     4    19 ar  
    10     4    44 1   
    11     5     6 2   
    12     6     7 1   
    13     6    77 1   
    14     7     8 ar  
    15     7    16 ar  
    16     8     9 ar  
    17     8    45 1   
    18     9    10 ar  
    19     9    46 1   
    20    10    11 1   
    21    10    15 ar  
    22    11    12 1   
    23    11    13 1   
    24    11    14 1   
    25    12    47 1   
    26    12    48 1   
    27    12    49 1   
    28    13    50 1   
    29    13    51 1   
    30    13    52 1   
    31    14    53 1   
    32    14    54 1   
    33    14    55 1   
    34    15    16 ar  
    35    15    56 1   
    36    16    57 1   
    37    17    77 1   
    38    18    59 1   
    39    18    60 1   
    40    18    61 1   
    41    19    20 1   
    42    20    21 ar  
    43    20    22 ar  
    44    21    25 ar  
    45    22    23 ar  
    46    23    24 ar  
    47    23    27 1   
    48    24    25 ar  
    49    25    26 1   
    50    26    62 1   
    51    26    63 1   
    52    27    28 1   
    53    27    64 1   
    54    28    29 ar  
    55    28    33 ar  
    56    29    30 ar  
    57    29    65 1   
    58    30    31 ar  
    59    30    66 1   
    60    31    32 ar  
    61    31    34 1   
    62    32    33 ar  
    63    32    67 1   
    64    33    68 1   
    65    34    35 2   
    66    34    36 1   
    67    36    37 1   
    68    36    41 1   
    69    37    38 1   
    70    37    69 1   
    71    37    70 1   
    72    38    39 1   
    73    38    71 1   
    74    38    72 1   
    75    39    40 1   
    76    40    41 1   
    77    40    73 1   
    78    40    74 1   
    79    41    75 1   
    80    41    76 1   
    81    58    77 1   
@<TRIPOS>SUBSTRUCTURE
     1 9M3         1 TEMP              0 ****  ****    0 ROOT
