@<TRIPOS>MOLECULE
9M4
   72    75     1     0     0
SMALL
No Charge or Current Charge


@<TRIPOS>ATOM
      1 C4           2.9650     2.7510    -0.7310 ca         1 9M4      -0.113000
      2 C5           3.8630     3.1740     0.2590 ca         1 9M4       0.133000
      3 C6           3.6480     2.8190     1.5990 ca         1 9M4      -0.113000
      4 C7           2.5390     2.0300     1.9490 ca         1 9M4      -0.063000
      5 C10         -1.5190    -0.6520     0.5640 c3         1 9M4       0.051700
      6 C15         -4.8210     1.0850    -0.5540 c6         1 9M4       0.107700
      7 C17         -5.7120     2.7610    -2.2750 c6         1 9M4      -0.071900
      8 C20         -6.1520     0.2970    -0.6570 c6         1 9M4      -0.088900
      9 C21         -3.2260    -2.2130     1.7910 c6         1 9M4      -0.070400
     10 C22         -3.4590    -3.1700     2.9860 c6         1 9M4      -0.073400
     11 C24         -0.9780    -3.7170     3.0480 c6         1 9M4      -0.073400
     12 C26          0.7110    -0.8610    -0.5780 ca         1 9M4      -0.012000
     13 C28          2.9150    -1.6430    -1.3400 ca         1 9M4       0.000000
     14 O32         -0.0550     0.8920     2.4750 o          1 9M4      -0.551100
     15 C2           1.6400     1.5730     0.9590 ca         1 9M4      -0.140600
     16 C3           1.8550     1.9620    -0.3850 ca         1 9M4      -0.063000
     17 Cl8          5.2520     4.1610    -0.1770 cl         1 9M4      -0.201000
     18 N9          -0.0890    -0.2080     0.4320 n          1 9M4      -0.240400
     19 C11         -1.7850    -1.6130     1.7880 c6         1 9M4      -0.063700
     20 C23         -2.4080    -4.3010     3.0160 c6         1 9M4      -0.075400
     21 C25         -0.7330    -2.7660     1.8520 c6         1 9M4      -0.070400
     22 C12         -2.5380     0.5160     0.3860 c          1 9M4       0.585100
     23 O13         -2.3150     1.6760     0.7090 o          1 9M4      -0.578100
     24 N14         -3.7220     0.1690    -0.2340 ns         1 9M4      -0.510900
     25 C16         -4.5410     1.8220    -1.8910 c6         1 9M4      -0.088900
     26 C18         -7.0490     1.9840    -2.3530 c6         1 9M4      -0.077400
     27 C19         -7.3330     1.2270    -1.0320 c6         1 9M4      -0.071900
     28 C27          2.0640    -1.1690    -0.3240 ca         1 9M4      -0.180000
     29 C29          2.4090    -1.7680    -2.6500 ca         1 9M4      -0.136000
     30 C30          1.0860    -1.3970    -2.9320 ca         1 9M4      -0.074000
     31 C31          0.2510    -0.9210    -1.9090 ca         1 9M4      -0.159000
     32 N33          4.2540    -1.9560    -0.9770 ns         1 9M4      -0.150000
     33 C34          5.3370    -2.4230    -1.7080 c          1 9M4       0.610100
     34 O36          5.3150    -2.6720    -2.9080 o          1 9M4      -0.576100
     35 C35          6.6060    -2.6130    -0.8830 c3         1 9M4      -0.183100
     36 H1           3.1250     3.0400    -1.7670 ha         1 9M4       0.131000
     37 H2           4.3410     3.1560     2.3660 ha         1 9M4       0.131000
     38 H3           2.3870     1.7600     2.9930 ha         1 9M4       0.128000
     39 H4          -1.7160    -1.2960    -0.3010 h1         1 9M4       0.055700
     40 H5          -4.9100     1.8270     0.2550 h1         1 9M4       0.083700
     41 H7          -5.5040     3.2410    -3.2410 hc         1 9M4       0.043700
     42 H8          -6.0600    -0.5000    -1.4080 hc         1 9M4       0.043200
     43 H9          -6.3650    -0.1990     0.3000 hc         1 9M4       0.043200
     44 H10         -3.4110    -2.7510     0.8500 hc         1 9M4       0.037950
     45 H11         -3.9740    -1.4120     1.8510 hc         1 9M4       0.037950
     46 H12         -3.4190    -2.6030     3.9270 hc         1 9M4       0.042450
     47 H13         -4.4680    -3.6010     2.9260 hc         1 9M4       0.042450
     48 H14         -0.8200    -3.1750     3.9910 hc         1 9M4       0.042450
     49 H15         -0.2420    -4.5330     3.0310 hc         1 9M4       0.042450
     50 H16          1.1580     1.6690    -1.1670 ha         1 9M4       0.128000
     51 H17         -1.6850    -1.0080     2.6990 hc         1 9M4       0.095700
     52 H18         -2.5710    -4.9400     3.8940 hc         1 9M4       0.038200
     53 H19         -2.5280    -4.9440     2.1330 hc         1 9M4       0.038200
     54 H20          0.2810    -2.3550     1.9400 hc         1 9M4       0.037950
     55 H21         -0.7540    -3.3410     0.9150 hc         1 9M4       0.037950
     56 H22         -3.8290    -0.8050    -0.4910 hn         1 9M4       0.308500
     57 H23         -3.6150     2.4070    -1.8090 hc         1 9M4       0.043200
     58 H24         -4.3770     1.0900    -2.6940 hc         1 9M4       0.043200
     59 H25         -7.8730     2.6770    -2.5700 hc         1 9M4       0.040700
     60 H26         -7.0140     1.2700    -3.1870 hc         1 9M4       0.040700
     61 H27         -8.2550     0.6390    -1.1300 hc         1 9M4       0.043700
     62 H28         -7.5070     1.9490    -0.2220 hc         1 9M4       0.043700
     63 H29          2.4590    -1.0610     0.6830 ha         1 9M4       0.119000
     64 H30          3.0280    -2.1260    -3.4670 ha         1 9M4       0.152000
     65 H31          0.7110    -1.4600    -3.9520 ha         1 9M4       0.119000
     66 H32         -0.7520    -0.5890    -2.1640 ha         1 9M4       0.125000
     67 H33          4.4540    -1.8060     0.0030 hn         1 9M4       0.151000
     68 H34          6.3870    -3.2770    -0.0380 hc         1 9M4       0.065367
     69 H35          7.4480    -2.9830    -1.4800 hc         1 9M4       0.065367
     70 H36          6.8490    -1.6700    -0.3800 hc         1 9M4       0.065367
     71 C1           0.4490     0.7240     1.3700 c          1 9M4       0.633700
     72 H6          -5.7960     3.5690    -1.5360 hc         1 9M4       0.043700
@<TRIPOS>BOND
     1     1     2 ar  
     2     1    16 ar  
     3     1    36 1   
     4     2     3 ar  
     5     2    17 1   
     6     3     4 ar  
     7     3    37 1   
     8     4    15 ar  
     9     4    38 1   
    10     5    18 1   
    11     5    19 1   
    12     5    22 1   
    13     5    39 1   
    14     6     8 1   
    15     6    24 1   
    16     6    25 1   
    17     6    40 1   
    18     7    25 1   
    19     7    26 1   
    20     7    41 1   
    21     7    72 1   
    22     8    27 1   
    23     8    42 1   
    24     8    43 1   
    25     9    10 1   
    26     9    19 1   
    27     9    44 1   
    28     9    45 1   
    29    10    20 1   
    30    10    46 1   
    31    10    47 1   
    32    11    20 1   
    33    11    21 1   
    34    11    48 1   
    35    11    49 1   
    36    12    18 1   
    37    12    28 ar  
    38    12    31 ar  
    39    13    28 ar  
    40    13    29 ar  
    41    13    32 1   
    42    14    71 2   
    43    15    16 ar  
    44    15    71 1   
    45    16    50 1   
    46    18    71 1   
    47    19    21 1   
    48    19    51 1   
    49    20    52 1   
    50    20    53 1   
    51    21    54 1   
    52    21    55 1   
    53    22    23 2   
    54    22    24 1   
    55    24    56 1   
    56    25    57 1   
    57    25    58 1   
    58    26    27 1   
    59    26    59 1   
    60    26    60 1   
    61    27    61 1   
    62    27    62 1   
    63    28    63 1   
    64    29    30 ar  
    65    29    64 1   
    66    30    31 ar  
    67    30    65 1   
    68    31    66 1   
    69    32    33 1   
    70    32    67 1   
    71    33    34 2   
    72    33    35 1   
    73    35    68 1   
    74    35    69 1   
    75    35    70 1   
@<TRIPOS>SUBSTRUCTURE
     1 9M4         1 TEMP              0 ****  ****    0 ROOT
