@<TRIPOS>MOLECULE
9M4
   72    75     1     0     0
SMALL
bcc


@<TRIPOS>ATOM
      1 C4           2.6630     3.1850    -0.1860 ca         1 9M4      -0.131000
      2 C5           3.7720     3.1350     0.6450 ca         1 9M4       0.041400
      3 C6           3.7990     2.3120     1.7600 ca         1 9M4      -0.131000
      4 C7           2.6920     1.5290     2.0440 ca         1 9M4      -0.081000
      5 C10         -1.4660    -0.7040     0.7370 c3         1 9M4       0.051700
      6 C15         -4.5500     0.8440    -0.8820 c6         1 9M4       0.107700
      7 C17         -5.4290     2.4270    -2.6310 c6         1 9M4      -0.071900
      8 C20         -5.8240     0.0100    -0.9960 c6         1 9M4      -0.088900
      9 C21         -3.0800    -2.2210     1.9380 c6         1 9M4      -0.070400
     10 C22         -3.3540    -3.0470     3.1910 c6         1 9M4      -0.073400
     11 C24         -0.8880    -3.3000     3.5720 c6         1 9M4      -0.073400
     12 C26          0.6090    -0.4120    -0.5380 ca         1 9M4       0.080600
     13 C28          2.6020    -1.3710    -1.5180 ca         1 9M4       0.092600
     14 O32         -0.0610     0.8280     2.7150 o          1 9M4      -0.551100
     15 C2           1.5840     1.5380     1.2050 ca         1 9M4      -0.140600
     16 C3           1.5740     2.3760     0.0940 ca         1 9M4      -0.081000
     17 CL8          5.1460     4.1260     0.2870 cl         1 9M4      -0.109400
     18 N9          -0.1390    -0.0850     0.6260 n          1 9M4      -0.400000
     19 C11         -1.7410    -1.4800     2.0390 c6         1 9M4      -0.063700
     20 C23         -2.2240    -4.0280     3.4780 c6         1 9M4      -0.075400
     21 C25         -0.6160    -2.4780     2.3170 c6         1 9M4      -0.070400
     22 C12         -2.5250     0.3610     0.4460 c          1 9M4       0.652100
     23 O13         -2.5140     1.4440     1.0090 o          1 9M4      -0.578100
     24 N14         -3.4380     0.0070    -0.4700 ns         1 9M4      -0.577900
     25 C16         -4.2470     1.5650    -2.1950 c6         1 9M4      -0.088900
     26 C18         -6.7050     1.6000    -2.7420 c6         1 9M4      -0.077400
     27 C19         -7.0030     0.8750    -1.4330 c6         1 9M4      -0.071900
     28 C27          1.8330    -1.0440    -0.4000 ca         1 9M4      -0.198000
     29 C29          2.1040    -1.0850    -2.7900 ca         1 9M4      -0.154000
     30 C30          0.8600    -0.4840    -2.9120 ca         1 9M4      -0.092000
     31 C31          0.1050    -0.1370    -1.8040 ca         1 9M4      -0.177000
     32 N33          3.8370    -1.9710    -1.2680 ns         1 9M4      -0.476100
     33 C34          4.7130    -2.5420    -2.1390 c          1 9M4       0.677100
     34 O36          4.5460    -2.5730    -3.3440 o          1 9M4      -0.576100
     35 C35          5.9070    -3.1730    -1.4690 c3         1 9M4      -0.183100
     36 H1           2.6460     3.8440    -1.0430 ha         1 9M4       0.149000
     37 H2           4.6680     2.2840     2.4030 ha         1 9M4       0.149000
     38 H3           2.7070     0.8920     2.9190 ha         1 9M4       0.146000
     39 H4          -1.4900    -1.4540    -0.0580 h1         1 9M4       0.055700
     40 H5          -4.6920     1.5910    -0.0990 h1         1 9M4       0.083700
     41 H7          -5.2030     2.9120    -3.5840 hc         1 9M4       0.043700
     42 H8          -5.6690    -0.7900    -1.7290 hc         1 9M4       0.043200
     43 H9          -6.0350    -0.4700    -0.0370 hc         1 9M4       0.043200
     44 H10         -3.0720    -2.8790     1.0600 hc         1 9M4       0.037950
     45 H11         -3.9010    -1.5150     1.7920 hc         1 9M4       0.037950
     46 H12         -3.4710    -2.3710     4.0450 hc         1 9M4       0.042450
     47 H13         -4.3030    -3.5770     3.0820 hc         1 9M4       0.042450
     48 H14         -0.8920    -2.6390     4.4460 hc         1 9M4       0.042450
     49 H15         -0.0760    -4.0140     3.7270 hc         1 9M4       0.042450
     50 H16          0.7130     2.4140    -0.5590 ha         1 9M4       0.146000
     51 H17         -1.8100    -0.7820     2.8740 hc         1 9M4       0.095700
     52 H18         -2.4240    -4.5770     4.4020 hc         1 9M4       0.038200
     53 H19         -2.1750    -4.7710     2.6750 hc         1 9M4       0.038200
     54 H20          0.3420    -1.9640     2.4180 hc         1 9M4       0.037950
     55 H21         -0.5170    -3.1550     1.4590 hc         1 9M4       0.037950
     56 H22         -3.3530    -0.8960    -0.9110 hn         1 9M4       0.308500
     57 H23         -3.3500     2.1790    -2.0780 hc         1 9M4       0.043200
     58 H24         -4.0290     0.8200    -2.9690 hc         1 9M4       0.043200
     59 H25         -7.5480     2.2380    -3.0200 hc         1 9M4       0.040700
     60 H26         -6.5900     0.8640    -3.5450 hc         1 9M4       0.040700
     61 H27         -7.8960     0.2560    -1.5330 hc         1 9M4       0.043700
     62 H28         -7.2190     1.6110    -0.6520 hc         1 9M4       0.043700
     63 H29          2.1930    -1.2920     0.5920 ha         1 9M4       0.137000
     64 H30          2.6680    -1.3230    -3.6760 ha         1 9M4       0.170000
     65 H31          0.4790    -0.2680    -3.9020 ha         1 9M4       0.137000
     66 H32         -0.8500     0.3560    -1.9300 ha         1 9M4       0.143000
     67 H33          4.0850    -2.0350    -0.2920 hn         1 9M4       0.317500
     68 H34          5.6670    -4.2050    -1.2040 hc         1 9M4       0.065367
     69 H35          6.7510    -3.1910    -2.1550 hc         1 9M4       0.065367
     70 H36          6.2020    -2.6570    -0.5570 hc         1 9M4       0.065367
     71 C1           0.3850     0.7270     1.5890 c          1 9M4       0.700700
     72 H6          -5.5780     3.2300    -1.9010 hc         1 9M4       0.043700
@<TRIPOS>BOND
     1     1     2 ar  
     2     1    16 ar  
     3     1    36 1   
     4     2     3 ar  
     5     2    17 1   
     6     3     4 ar  
     7     3    37 1   
     8     4    15 ar  
     9     4    38 1   
    10     5    18 1   
    11     5    19 1   
    12     5    22 1   
    13     5    39 1   
    14     6     8 1   
    15     6    24 1   
    16     6    25 1   
    17     6    40 1   
    18     7    25 1   
    19     7    26 1   
    20     7    41 1   
    21     7    72 1   
    22     8    27 1   
    23     8    42 1   
    24     8    43 1   
    25     9    10 1   
    26     9    19 1   
    27     9    44 1   
    28     9    45 1   
    29    10    20 1   
    30    10    46 1   
    31    10    47 1   
    32    11    20 1   
    33    11    21 1   
    34    11    48 1   
    35    11    49 1   
    36    12    18 1   
    37    12    28 ar  
    38    12    31 ar  
    39    13    28 ar  
    40    13    29 ar  
    41    13    32 1   
    42    14    71 2   
    43    15    16 ar  
    44    15    71 1   
    45    16    50 1   
    46    18    71 1   
    47    19    21 1   
    48    19    51 1   
    49    20    52 1   
    50    20    53 1   
    51    21    54 1   
    52    21    55 1   
    53    22    23 2   
    54    22    24 1   
    55    24    56 1   
    56    25    57 1   
    57    25    58 1   
    58    26    27 1   
    59    26    59 1   
    60    26    60 1   
    61    27    61 1   
    62    27    62 1   
    63    28    63 1   
    64    29    30 ar  
    65    29    64 1   
    66    30    31 ar  
    67    30    65 1   
    68    31    66 1   
    69    32    33 1   
    70    32    67 1   
    71    33    34 2   
    72    33    35 1   
    73    35    68 1   
    74    35    69 1   
    75    35    70 1   
@<TRIPOS>SUBSTRUCTURE
     1 9M4         1 TEMP              0 ****  ****    0 ROOT
