@<TRIPOS>MOLECULE
9M5
   67    70     1     0     0
SMALL
abcg2


@<TRIPOS>ATOM
      1 C02         21.7560     6.2480   -24.6180 c          1 9M5       0.546600
      2 C04         20.6670     5.1690   -26.4640 c3         1 9M5       0.090000
      3 C05         20.6490     5.1630   -28.0030 c          1 9M5       0.596100
      4 C07         21.9620     4.5230   -29.9830 c6         1 9M5       0.112700
      5 C08         23.4780     4.6000   -30.2060 c6         1 9M5      -0.089400
      6 C09         23.8800     4.1140   -31.6050 c6         1 9M5      -0.070400
      7 C10         22.7560     4.3390   -32.6080 c6         1 9M5      -0.077400
      8 C11         21.5170     3.5100   -32.2350 c6         1 9M5      -0.070400
      9 C12         21.3810     3.3180   -30.7160 c6         1 9M5      -0.089400
     10 C14         19.2590     5.2600   -25.9420 ca         1 9M5      -0.128300
     11 C15         18.5910     6.4680   -25.8000 ca         1 9M5      -0.030000
     12 C16         17.2820     6.4610   -25.3470 ca         1 9M5      -0.169000
     13 C17         16.6830     5.2440   -25.0600 ca         1 9M5       0.339900
     14 C19         18.5650     4.1010   -25.6220 ca         1 9M5       0.356900
     15 C20         22.3230     7.0100   -26.8650 ca         1 9M5      -0.040000
     16 C21         21.7730     7.9660   -27.7020 ca         1 9M5      -0.100000
     17 C22         22.5730     8.6400   -28.6160 ca         1 9M5      -0.104000
     18 C23         23.9410     8.3920   -28.7110 ca         1 9M5      -0.065300
     19 C24         24.8400     9.0920   -29.7250 c3         1 9M5       0.000300
     20 C25         24.0930    10.1570   -30.5270 c3         1 9M5      -0.083100
     21 C26         25.3920     8.0490   -30.7070 c3         1 9M5      -0.083100
     22 C27         26.0070     9.7710   -28.9970 c3         1 9M5      -0.083100
     23 C28         24.4780     7.4370   -27.8440 ca         1 9M5      -0.104000
     24 C29         23.6850     6.7480   -26.9430 ca         1 9M5      -0.100000
     25 C30         22.4540     7.3960   -24.0160 cc         1 9M5       0.174500
     26 C31         23.1230     7.3370   -22.8180 cd         1 9M5      -0.158000
     27 C33         23.1450     9.3690   -23.6260 cd         1 9M5       0.385400
     28 N03         21.5060     6.2680   -25.9640 n          1 9M5      -0.226400
     29 N06         21.6790     4.5170   -28.5600 ns         1 9M5      -0.497900
     30 N18         17.3100     4.0810   -25.1930 nb         1 9M5      -0.670000
     31 N32         23.5610     8.5970   -22.5950 na         1 9M5      -0.299500
     32 N34         22.4760     8.6740   -24.5030 nc         1 9M5      -0.634000
     33 O01         21.3810     5.3240   -23.9140 o          1 9M5      -0.591100
     34 O13         19.7580     5.7080   -28.6330 o          1 9M5      -0.583100
     35 H041        21.0980     4.2180   -26.1320 h1         1 9M5       0.067700
     36 H071        21.4960     5.4260   -30.3870 h1         1 9M5       0.077700
     37 H081        23.9890     3.9930   -29.4510 hc         1 9M5       0.045450
     38 H082        23.8070     5.6280   -30.0450 hc         1 9M5       0.045450
     39 H092        24.1190     3.0470   -31.5740 hc         1 9M5       0.040700
     40 H091        24.7910     4.6220   -31.9230 hc         1 9M5       0.040700
     41 H102        23.0860     4.0850   -33.6170 hc         1 9M5       0.040700
     42 H101        22.5050     5.4040   -32.6320 hc         1 9M5       0.040700
     43 H112        20.6220     3.9980   -32.6260 hc         1 9M5       0.040700
     44 H111        21.5690     2.5310   -32.7150 hc         1 9M5       0.040700
     45 H122        20.3330     3.1770   -30.4440 hc         1 9M5       0.045450
     46 H121        21.9120     2.4180   -30.3930 hc         1 9M5       0.045450
     47 H151        19.0850     7.4050   -26.0190 ha         1 9M5       0.129000
     48 H161        16.7300     7.3830   -25.2190 ha         1 9M5       0.121000
     49 H171        15.6590     5.2070   -24.7060 h4         1 9M5       0.015100
     50 H191        19.0580     3.1370   -25.7130 h4         1 9M5       0.013100
     51 H211        20.7180     8.1960   -27.6440 ha         1 9M5       0.122500
     52 H221        22.1030     9.3750   -29.2530 ha         1 9M5       0.114000
     53 H252        23.6840    10.9400   -29.8860 hc         1 9M5       0.035478
     54 H253        24.7790    10.6330   -31.2280 hc         1 9M5       0.035478
     55 H251        23.2730     9.7330   -31.1100 hc         1 9M5       0.035478
     56 H261        25.9830     7.2840   -30.2010 hc         1 9M5       0.035478
     57 H262        24.5840     7.5480   -31.2440 hc         1 9M5       0.035478
     58 H263        26.0370     8.5290   -31.4450 hc         1 9M5       0.035478
     59 H273        25.6460    10.5230   -28.2930 hc         1 9M5       0.035478
     60 H271        26.6190     9.0590   -28.4440 hc         1 9M5       0.035478
     61 H272        26.6570    10.2730   -29.7160 hc         1 9M5       0.035478
     62 H281        25.5350     7.2030   -27.8810 ha         1 9M5       0.114000
     63 H291        24.1270     5.9940   -26.3030 ha         1 9M5       0.122500
     64 H311        23.3200     6.5230   -22.1410 h4         1 9M5       0.174000
     65 H331        23.3550    10.4260   -23.6780 h5         1 9M5       0.060100
     66 H061        22.3520     4.0700   -27.9560 hn         1 9M5       0.312500
     67 H1          24.1020     8.9050   -21.8010 hn         1 9M5       0.357000
@<TRIPOS>BOND
     1     1    25 1   
     2     1    28 1   
     3     1    33 2   
     4     2     3 1   
     5     2    10 1   
     6     2    28 1   
     7     2    35 1   
     8     3    29 1   
     9     3    34 2   
    10     4     5 1   
    11     4     9 1   
    12     4    29 1   
    13     4    36 1   
    14     5     6 1   
    15     5    37 1   
    16     5    38 1   
    17     6     7 1   
    18     6    39 1   
    19     6    40 1   
    20     7     8 1   
    21     7    41 1   
    22     7    42 1   
    23     8     9 1   
    24     8    43 1   
    25     8    44 1   
    26     9    45 1   
    27     9    46 1   
    28    10    11 ar  
    29    10    14 ar  
    30    11    12 ar  
    31    11    47 1   
    32    12    13 ar  
    33    12    48 1   
    34    13    30 ar  
    35    13    49 1   
    36    14    30 ar  
    37    14    50 1   
    38    15    16 ar  
    39    15    24 ar  
    40    15    28 1   
    41    16    17 ar  
    42    16    51 1   
    43    17    18 ar  
    44    17    52 1   
    45    18    19 1   
    46    18    23 ar  
    47    19    20 1   
    48    19    21 1   
    49    19    22 1   
    50    20    53 1   
    51    20    54 1   
    52    20    55 1   
    53    21    56 1   
    54    21    57 1   
    55    21    58 1   
    56    22    59 1   
    57    22    60 1   
    58    22    61 1   
    59    23    24 ar  
    60    23    62 1   
    61    24    63 1   
    62    25    26 2   
    63    25    32 1   
    64    26    31 1   
    65    26    64 1   
    66    27    31 1   
    67    27    32 2   
    68    27    65 1   
    69    29    66 1   
    70    31    67 1   
@<TRIPOS>SUBSTRUCTURE
     1 9M5         1 TEMP              0 ****  ****    0 ROOT
