@<TRIPOS>MOLECULE
9M5
   67    70     1     0     0
SMALL
No Charge or Current Charge


@<TRIPOS>ATOM
      1 C02         21.9860     5.7270   -24.6700 c          1 9M5       0.546600
      2 C04         20.4750     5.0880   -26.5570 c3         1 9M5       0.090000
      3 C05         20.4350     4.7850   -28.0920 c          1 9M5       0.596100
      4 C07         21.8880     4.3610   -30.1270 c6         1 9M5       0.112700
      5 C08         23.2850     4.9330   -30.5090 c6         1 9M5      -0.089400
      6 C09         23.8670     4.3310   -31.8210 c6         1 9M5      -0.070400
      7 C10         22.7530     3.8040   -32.7560 c6         1 9M5      -0.077400
      8 C11         21.9160     2.6850   -32.0710 c6         1 9M5      -0.070400
      9 C12         21.7860     2.8710   -30.5310 c6         1 9M5      -0.089400
     10 C14         19.1300     5.6160   -26.0300 ca         1 9M5      -0.128300
     11 C15         18.9560     6.9450   -25.5870 ca         1 9M5      -0.030000
     12 C16         17.6920     7.3310   -25.1130 ca         1 9M5      -0.169000
     13 C17         16.6490     6.3930   -25.0900 ca         1 9M5       0.339900
     14 C19         18.0220     4.7450   -25.9650 ca         1 9M5       0.356900
     15 C20         22.3850     6.7070   -26.9860 ca         1 9M5      -0.040000
     16 C21         21.7100     7.6310   -27.8070 ca         1 9M5      -0.100000
     17 C22         22.4230     8.4800   -28.6710 ca         1 9M5      -0.104000
     18 C23         23.8380     8.4630   -28.7080 ca         1 9M5      -0.065300
     19 C24         24.6660     9.3660   -29.6610 c3         1 9M5       0.000300
     20 C25         23.7810    10.2510   -30.5840 c3         1 9M5      -0.083100
     21 C26         25.5560     8.4740   -30.5690 c3         1 9M5      -0.083100
     22 C27         25.5700    10.3070   -28.8180 c3         1 9M5      -0.083100
     23 C28         24.5060     7.5890   -27.8200 ca         1 9M5      -0.104000
     24 C29         23.7920     6.7420   -26.9570 ca         1 9M5      -0.100000
     25 C30         22.7000     6.8690   -23.9740 cc         1 9M5       0.174500
     26 C31         23.1330     6.7420   -22.6760 cd         1 9M5      -0.158000
     27 C33         23.5640     8.7930   -23.4510 cd         1 9M5       0.385400
     28 N03         21.6600     5.8690   -26.0550 n          1 9M5      -0.226400
     29 N06         21.6530     4.5400   -28.6930 ns         1 9M5      -0.497900
     30 N18         16.8030     5.1160   -25.5060 nb         1 9M5      -0.670000
     31 N32         23.6940     7.9680   -22.3520 na         1 9M5      -0.299500
     32 N34         22.9540     8.1460   -24.4320 nc         1 9M5      -0.634000
     33 O01         21.6530     4.7140   -24.0550 o          1 9M5      -0.591100
     34 O13         19.3970     4.7790   -28.7440 o          1 9M5      -0.583100
     35 H041        20.5870     4.0800   -26.1400 h1         1 9M5       0.067700
     36 H071        21.1180     4.9230   -30.6790 h1         1 9M5       0.077700
     37 H081        24.0050     4.7600   -29.6970 hc         1 9M5       0.045450
     38 H082        23.2000     6.0240   -30.6070 hc         1 9M5       0.045450
     39 H092        24.5470     3.5030   -31.5740 hc         1 9M5       0.040700
     40 H091        24.4760     5.0840   -32.3400 hc         1 9M5       0.040700
     41 H102        23.1880     3.4270   -33.6910 hc         1 9M5       0.040700
     42 H101        22.0950     4.6380   -33.0380 hc         1 9M5       0.040700
     43 H112        20.9170     2.6580   -32.5280 hc         1 9M5       0.040700
     44 H111        22.3690     1.7050   -32.2750 hc         1 9M5       0.040700
     45 H122        20.8320     2.4470   -30.1890 hc         1 9M5       0.045450
     46 H121        22.5760     2.3020   -30.0220 hc         1 9M5       0.045450
     47 H151        19.7710     7.6650   -25.5990 ha         1 9M5       0.129000
     48 H161        17.5180     8.3450   -24.7630 ha         1 9M5       0.121000
     49 H171        15.6610     6.6690   -24.7250 h4         1 9M5       0.015100
     50 H191        18.1130     3.7090   -26.2880 h4         1 9M5       0.013100
     51 H211        20.6250     7.6790   -27.8060 ha         1 9M5       0.122500
     52 H221        21.8460     9.1470   -29.3050 ha         1 9M5       0.114000
     53 H252        23.1560    10.9340   -29.9970 hc         1 9M5       0.035478
     54 H253        24.4010    10.8640   -31.2500 hc         1 9M5       0.035478
     55 H251        23.1300     9.6340   -31.2150 hc         1 9M5       0.035478
     56 H261        26.2670     7.8800   -29.9840 hc         1 9M5       0.035478
     57 H262        24.9390     7.7810   -31.1550 hc         1 9M5       0.035478
     58 H263        26.1370     9.0850   -31.2720 hc         1 9M5       0.035478
     59 H273        24.9630    10.9200   -28.1410 hc         1 9M5       0.035478
     60 H271        26.2860     9.7420   -28.2110 hc         1 9M5       0.035478
     61 H272        26.1440    10.9820   -29.4640 hc         1 9M5       0.035478
     62 H281        25.5910     7.5590   -27.7910 ha         1 9M5       0.114000
     63 H291        24.3410     6.0850   -26.2880 ha         1 9M5       0.122500
     64 H311        23.0800     5.8990   -21.9940 h4         1 9M5       0.174000
     65 H331        23.9160     9.8190   -23.4590 h5         1 9M5       0.060100
     66 H061        22.4620     4.5980   -28.0860 hn         1 9M5       0.312500
     67 H1          24.1200     8.2330   -21.4720 hn         1 9M5       0.357000
@<TRIPOS>BOND
     1     1    25 1   
     2     1    28 1   
     3     1    33 2   
     4     2     3 1   
     5     2    10 1   
     6     2    28 1   
     7     2    35 1   
     8     3    29 1   
     9     3    34 2   
    10     4     5 1   
    11     4     9 1   
    12     4    29 1   
    13     4    36 1   
    14     5     6 1   
    15     5    37 1   
    16     5    38 1   
    17     6     7 1   
    18     6    39 1   
    19     6    40 1   
    20     7     8 1   
    21     7    41 1   
    22     7    42 1   
    23     8     9 1   
    24     8    43 1   
    25     8    44 1   
    26     9    45 1   
    27     9    46 1   
    28    10    11 ar  
    29    10    14 ar  
    30    11    12 ar  
    31    11    47 1   
    32    12    13 ar  
    33    12    48 1   
    34    13    30 ar  
    35    13    49 1   
    36    14    30 ar  
    37    14    50 1   
    38    15    16 ar  
    39    15    24 ar  
    40    15    28 1   
    41    16    17 ar  
    42    16    51 1   
    43    17    18 ar  
    44    17    52 1   
    45    18    19 1   
    46    18    23 ar  
    47    19    20 1   
    48    19    21 1   
    49    19    22 1   
    50    20    53 1   
    51    20    54 1   
    52    20    55 1   
    53    21    56 1   
    54    21    57 1   
    55    21    58 1   
    56    22    59 1   
    57    22    60 1   
    58    22    61 1   
    59    23    24 ar  
    60    23    62 1   
    61    24    63 1   
    62    25    26 2   
    63    25    32 1   
    64    26    31 1   
    65    26    64 1   
    66    27    31 1   
    67    27    32 2   
    68    27    65 1   
    69    29    66 1   
    70    31    67 1   
@<TRIPOS>SUBSTRUCTURE
     1 9M5         1 TEMP              0 ****  ****    0 ROOT
