@<TRIPOS>MOLECULE
9M6
   61    65     1     0     0
SMALL
abcg2


@<TRIPOS>ATOM
      1 C2          -4.9330     2.4480     0.2370 c5         1 9M6      -0.072400
      2 C12          3.4830     1.8930    -0.7810 ca         1 9M6      -0.013500
      3 C13          7.9190     1.2970     1.3640 c3         1 9M6       0.192600
      4 C14          6.4030     1.2980     1.2160 c3         1 9M6      -0.309400
      5 C15          4.1540     0.7560    -0.3540 ca         1 9M6      -0.271500
      6 C17         -0.0960     0.8630    -0.1860 cp         1 9M6      -0.062000
      7 C18         -0.7830     0.2350     0.8490 ca         1 9M6      -0.091000
      8 C19         -2.8270    -0.4100     2.1020 cx         1 9M6      -0.072400
      9 C20         -2.1720     0.2500     0.9360 ca         1 9M6      -0.050300
     10 N1          -5.0940    -2.7400     0.4280 nb         1 9M6      -0.676000
     11 C5          -6.4070     2.3370    -0.1300 c5         1 9M6      -0.079400
     12 C6          -2.9160     0.9210    -0.0430 ca         1 9M6      -0.032300
     13 C7          -2.2230     1.5490    -1.0780 ca         1 9M6      -0.112000
     14 C9           1.3760     0.8260    -0.2470 cp         1 9M6       0.034000
     15 O3           6.3820     1.6860    -1.3990 o          1 9M6      -0.523000
     16 O2           6.3520    -0.6760    -0.5350 o          1 9M6      -0.523000
     17 O1           8.1920     1.7620     2.6630 oh         1 9M6      -0.653000
     18 C16          3.4610    -0.3490     0.1210 ca         1 9M6      -0.013500
     19 C10          2.0790    -0.3070     0.1710 ca         1 9M6      -0.124000
     20 C11          2.1010     1.9210    -0.7240 ca         1 9M6      -0.124000
     21 C8          -0.8440     1.5270    -1.1570 ca         1 9M6      -0.090000
     22 C1          -4.4160     1.0210     0.0060 c5         1 9M6      -0.034400
     23 C3          -5.1500     0.5660    -1.2760 c5         1 9M6      -0.072400
     24 C4          -6.4010     1.4650    -1.3920 c5         1 9M6      -0.079400
     25 C27         -3.6200    -1.7000     1.9730 cx         1 9M6      -0.172000
     26 C21         -2.2920    -1.6780     2.6740 cx         1 9M6      -0.111400
     27 C22         -3.8360    -2.3710     0.6720 ca         1 9M6       0.385300
     28 C23         -2.8170    -2.6010    -0.2520 ca         1 9M6      -0.151000
     29 C24         -3.1240    -3.2080    -1.4570 ca         1 9M6      -0.072000
     30 C25         -4.4360    -3.5810    -1.7110 ca         1 9M6      -0.167000
     31 C26         -5.3780    -3.3290    -0.7280 ca         1 9M6       0.337900
     32 H1          -4.4280     3.1490    -0.4350 hc         1 9M6       0.044700
     33 H2          -4.7580     2.7940     1.2580 hc         1 9M6       0.044700
     34 H3           4.0220     2.7550    -1.1510 ha         1 9M6       0.138000
     35 H4           8.3030     0.2840     1.2050 h1         1 9M6       0.037200
     36 H5           8.3630     1.9440     0.5990 h1         1 9M6       0.037200
     37 H6           5.9340     0.6350     1.9460 h1         1 9M6       0.107200
     38 H7           5.9930     2.3020     1.3350 h1         1 9M6       0.107200
     39 H8          -0.2230    -0.2580     1.6350 ha         1 9M6       0.116000
     40 H9          -3.2610     0.2840     2.8170 hc         1 9M6       0.090700
     41 H10         -6.9490     1.8350     0.6770 hc         1 9M6       0.042700
     42 H11         -6.8850     3.3040    -0.2880 hc         1 9M6       0.042700
     43 H12         -2.7780     2.0690    -1.8510 ha         1 9M6       0.118000
     44 H13          9.1440     1.7310     2.7960 ho         1 9M6       0.447000
     45 H14          3.9830    -1.2410     0.4410 ha         1 9M6       0.138000
     46 H15          1.5450    -1.1810     0.5180 ha         1 9M6       0.122000
     47 H16          1.5840     2.8160    -1.0420 ha         1 9M6       0.122000
     48 H17         -0.3510     2.0120    -1.9910 ha         1 9M6       0.117000
     49 H18         -4.7890     0.4130     0.8330 hc         1 9M6       0.066700
     50 H19         -4.5130     0.6800    -2.1550 hc         1 9M6       0.044700
     51 H20         -5.4010    -0.4930    -1.2160 hc         1 9M6       0.044700
     52 H21         -7.3210     0.8870    -1.4960 hc         1 9M6       0.042700
     53 H22         -6.3250     2.0980    -2.2790 hc         1 9M6       0.042700
     54 H23         -4.4950    -1.7500     2.6100 hc         1 9M6       0.101700
     55 H24         -1.4550    -2.1490     2.1730 hc         1 9M6       0.075700
     56 H25         -2.2910    -1.8060     3.7480 hc         1 9M6       0.075700
     57 H26         -1.7960    -2.3170    -0.0360 ha         1 9M6       0.125000
     58 H27         -2.3460    -3.3910    -2.1880 ha         1 9M6       0.119000
     59 H28         -4.7220    -4.0590    -2.6370 ha         1 9M6       0.124000
     60 H29         -6.4140    -3.6130    -0.8790 h4         1 9M6       0.018100
     61 S1           5.9220     0.7160    -0.4060 sy         1 9M6       1.050500
@<TRIPOS>BOND
     1     1    11 1   
     2     1    22 1   
     3     1    32 1   
     4     1    33 1   
     5     2     5 ar  
     6     2    20 ar  
     7     2    34 1   
     8     3     4 1   
     9     3    17 1   
    10     3    35 1   
    11     3    36 1   
    12     4    37 1   
    13     4    38 1   
    14     4    61 1   
    15     5    18 ar  
    16     5    61 1   
    17     6     7 ar  
    18     6    14 1   
    19     6    21 ar  
    20     7     9 ar  
    21     7    39 1   
    22     8     9 1   
    23     8    25 1   
    24     8    26 1   
    25     8    40 1   
    26     9    12 ar  
    27    10    27 ar  
    28    10    31 ar  
    29    11    24 1   
    30    11    41 1   
    31    11    42 1   
    32    12    13 ar  
    33    12    22 1   
    34    13    21 ar  
    35    13    43 1   
    36    14    19 ar  
    37    14    20 ar  
    38    15    61 2   
    39    16    61 2   
    40    17    44 1   
    41    18    19 ar  
    42    18    45 1   
    43    19    46 1   
    44    20    47 1   
    45    21    48 1   
    46    22    23 1   
    47    22    49 1   
    48    23    24 1   
    49    23    50 1   
    50    23    51 1   
    51    24    52 1   
    52    24    53 1   
    53    25    26 1   
    54    25    27 1   
    55    25    54 1   
    56    26    55 1   
    57    26    56 1   
    58    27    28 ar  
    59    28    29 ar  
    60    28    57 1   
    61    29    30 ar  
    62    29    58 1   
    63    30    31 ar  
    64    30    59 1   
    65    31    60 1   
@<TRIPOS>SUBSTRUCTURE
     1 9M6         1 TEMP              0 ****  ****    0 ROOT
