@<TRIPOS>MOLECULE
9M6
   61    65     1     0     0
SMALL
No Charge or Current Charge


@<TRIPOS>ATOM
      1 C2          -4.9770     2.4310     0.3330 c5         1 9M6      -0.072400
      2 C12          3.4740     1.9060    -0.7660 ca         1 9M6      -0.013500
      3 C13          8.0220     1.4460     1.2580 c3         1 9M6       0.192600
      4 C14          6.4990     1.3820     1.1360 c3         1 9M6      -0.309400
      5 C15          4.1930     0.7630    -0.3620 ca         1 9M6      -0.271500
      6 C17         -0.1430     0.8290    -0.0860 cp         1 9M6      -0.062000
      7 C18         -0.8210     0.1830     0.9740 ca         1 9M6      -0.091000
      8 C19         -2.8610    -0.5570     2.2280 cx         1 9M6      -0.072400
      9 C20         -2.2280     0.1820     1.0730 ca         1 9M6      -0.050300
     10 N1          -5.2310    -2.8580     0.5110 nb         1 9M6      -0.676000
     11 C5          -6.3230     2.4410    -0.4300 c5         1 9M6      -0.079400
     12 C6          -3.0050     0.8720     0.1030 ca         1 9M6      -0.032300
     13 C7          -2.3270     1.5160    -0.9580 ca         1 9M6      -0.112000
     14 C9           1.3520     0.8070    -0.1800 cp         1 9M6       0.034000
     15 O3           6.4220     1.7220    -1.4700 o          1 9M6      -0.523000
     16 O2           6.4460    -0.6560    -0.5240 o          1 9M6      -0.523000
     17 O1           8.3400     1.9640     2.5500 oh         1 9M6      -0.653000
     18 C16          3.4970    -0.3560     0.1360 ca         1 9M6      -0.013500
     19 C10          2.0950    -0.3300     0.2240 ca         1 9M6      -0.124000
     20 C11          2.0710     1.9220    -0.6760 ca         1 9M6      -0.124000
     21 C8          -0.9280     1.4930    -1.0530 ca         1 9M6      -0.090000
     22 C1          -4.5470     0.9350     0.1900 c5         1 9M6      -0.034400
     23 C3          -5.1700     0.4580    -1.1720 c5         1 9M6      -0.072400
     24 C4          -5.9000     1.7140    -1.7290 c5         1 9M6      -0.079400
     25 C27         -3.6750    -1.8280     2.0530 cx         1 9M6      -0.172000
     26 C21         -2.3220    -1.8830     2.7270 cx         1 9M6      -0.111400
     27 C22         -3.9540    -2.4510     0.7030 ca         1 9M6       0.385300
     28 C23         -2.9620    -2.5970    -0.2920 ca         1 9M6      -0.151000
     29 C24         -3.3030    -3.1640    -1.5290 ca         1 9M6      -0.072000
     30 C25         -4.6300    -3.5750    -1.7230 ca         1 9M6      -0.167000
     31 C26         -5.5560    -3.4070    -0.6810 ca         1 9M6       0.337900
     32 H1          -4.2690     3.1350    -0.1190 hc         1 9M6       0.044700
     33 H2          -5.0910     2.7270     1.3820 hc         1 9M6       0.044700
     34 H3           3.9940     2.7840    -1.1460 ha         1 9M6       0.138000
     35 H4           8.4490     0.4420     1.1300 h1         1 9M6       0.037200
     36 H5           8.4330     2.0960     0.4720 h1         1 9M6       0.037200
     37 H6           6.0780     0.7180     1.8970 h1         1 9M6       0.107200
     38 H7           6.0610     2.3810     1.2350 h1         1 9M6       0.107200
     39 H8          -0.2380    -0.3180     1.7420 ha         1 9M6       0.116000
     40 H9          -3.2110     0.1340     2.9920 hc         1 9M6       0.090700
     41 H10         -7.1070     1.8970     0.1110 hc         1 9M6       0.042700
     42 H11         -6.6900     3.4560    -0.6180 hc         1 9M6       0.042700
     43 H12         -2.8870     2.0450    -1.7230 ha         1 9M6       0.118000
     44 H13          9.3210     1.9980     2.6110 ho         1 9M6       0.447000
     45 H14          4.0340    -1.2480     0.4550 ha         1 9M6       0.138000
     46 H15          1.5780    -1.2110     0.5970 ha         1 9M6       0.122000
     47 H16          1.5380     2.8180    -0.9810 ha         1 9M6       0.122000
     48 H17         -0.4510     1.9910    -1.8930 ha         1 9M6       0.117000
     49 H18         -4.9720     0.3510     1.0120 hc         1 9M6       0.066700
     50 H19         -4.4370     0.0570    -1.8800 hc         1 9M6       0.044700
     51 H20         -5.8900    -0.3480    -0.9920 hc         1 9M6       0.044700
     52 H21         -6.7580     1.4500    -2.3580 hc         1 9M6       0.042700
     53 H22         -5.2320     2.3340    -2.3380 hc         1 9M6       0.042700
     54 H23         -4.5300    -1.9290     2.7170 hc         1 9M6       0.101700
     55 H24         -1.5020    -2.3500     2.1890 hc         1 9M6       0.075700
     56 H25         -2.3000    -2.0430     3.8020 hc         1 9M6       0.075700
     57 H26         -1.9440    -2.2680    -0.1140 ha         1 9M6       0.125000
     58 H27         -2.5590    -3.2820    -2.3150 ha         1 9M6       0.119000
     59 H28         -4.9430    -4.0200    -2.6640 ha         1 9M6       0.124000
     60 H29         -6.5920    -3.7200    -0.8050 h4         1 9M6       0.018100
     61 S1           5.9950     0.7410    -0.4640 sy         1 9M6       1.050500
@<TRIPOS>BOND
     1     1    11 1   
     2     1    22 1   
     3     1    32 1   
     4     1    33 1   
     5     2     5 ar  
     6     2    20 ar  
     7     2    34 1   
     8     3     4 1   
     9     3    17 1   
    10     3    35 1   
    11     3    36 1   
    12     4    37 1   
    13     4    38 1   
    14     4    61 1   
    15     5    18 ar  
    16     5    61 1   
    17     6     7 ar  
    18     6    14 1   
    19     6    21 ar  
    20     7     9 ar  
    21     7    39 1   
    22     8     9 1   
    23     8    25 1   
    24     8    26 1   
    25     8    40 1   
    26     9    12 ar  
    27    10    27 ar  
    28    10    31 ar  
    29    11    24 1   
    30    11    41 1   
    31    11    42 1   
    32    12    13 ar  
    33    12    22 1   
    34    13    21 ar  
    35    13    43 1   
    36    14    19 ar  
    37    14    20 ar  
    38    15    61 2   
    39    16    61 2   
    40    17    44 1   
    41    18    19 ar  
    42    18    45 1   
    43    19    46 1   
    44    20    47 1   
    45    21    48 1   
    46    22    23 1   
    47    22    49 1   
    48    23    24 1   
    49    23    50 1   
    50    23    51 1   
    51    24    52 1   
    52    24    53 1   
    53    25    26 1   
    54    25    27 1   
    55    25    54 1   
    56    26    55 1   
    57    26    56 1   
    58    27    28 ar  
    59    28    29 ar  
    60    28    57 1   
    61    29    30 ar  
    62    29    58 1   
    63    30    31 ar  
    64    30    59 1   
    65    31    60 1   
@<TRIPOS>SUBSTRUCTURE
     1 9M6         1 TEMP              0 ****  ****    0 ROOT
