@<TRIPOS>MOLECULE
9M7
   57    60     1     0     0
SMALL
abcg2


@<TRIPOS>ATOM
      1 N1          -1.7810     0.0400     0.1160 n          1 9M7      -0.397800
      2 C4          -1.5370    -0.9110     1.2170 c6         1 9M7       0.122200
      3 C5          -0.5260    -1.2280    -1.5680 cc         1 9M7      -0.268600
      4 C7          -4.0200     1.1570     0.2650 c6         1 9M7      -0.089650
      5 C8          -1.9330     2.5550    -0.0590 c6         1 9M7      -0.089650
      6 C10         -0.1060    -0.8950     1.7420 c6         1 9M7      -0.089650
      7 C13         -4.7330     2.3690     0.8600 c6         1 9M7      -0.072150
      8 C15         -1.9300    -3.1390     2.2720 c6         1 9M7      -0.072150
      9 C17          1.7130    -0.0290    -1.0250 ca         1 9M7      -0.128500
     10 C21         -4.1540     3.6780     0.3330 c6         1 9M7      -0.077400
     11 C22         -0.5070    -3.1330     2.8230 c6         1 9M7      -0.077400
     12 C24          1.3690     1.2760    -1.3710 ca         1 9M7      -0.071000
     13 C28          3.1760     2.1470    -0.0870 ca         1 9M7       0.134000
     14 C12         -0.7580    -2.3810    -2.2440 cd         1 9M7       0.222300
     15 O19          0.4120    -2.9380    -2.5630 os         1 9M7      -0.063700
     16 N18          1.4370    -2.1560    -2.1450 nd         1 9M7      -0.334300
     17 C11          0.8950    -1.1320    -1.5500 cc         1 9M7       0.346500
     18 C27          2.0860     2.3660    -0.9120 ca         1 9M7      -0.109000
     19 CL29         4.0870     3.4890     0.5040 cl         1 9M7      -0.187000
     20 C25          3.5500     0.8650     0.2820 ca         1 9M7      -0.108000
     21 C23          2.8170    -0.2110    -0.1930 ca         1 9M7       0.151000
     22 CL26         3.2870    -1.7860     0.3370 cl         1 9M7      -0.173000
     23 C2          -1.5380    -0.2010    -1.1840 c          1 9M7       0.646700
     24 O6          -2.0600     0.4260    -2.0990 o          1 9M7      -0.602100
     25 C3          -2.5140     1.2580     0.5030 c6         1 9M7       0.122200
     26 C14         -2.6490     3.7500     0.5690 c6         1 9M7      -0.072150
     27 C9          -2.0220    -2.3390     0.9730 c6         1 9M7      -0.089650
     28 C16          0.0040    -1.7110     3.0260 c6         1 9M7      -0.072150
     29 H1          -2.1710    -0.5330     2.0240 h1         1 9M7       0.047200
     30 H2          -4.4020     0.2380     0.7180 hc         1 9M7       0.052325
     31 H3          -4.2210     1.0930    -0.8070 hc         1 9M7       0.052325
     32 H4          -0.8630     2.5970     0.1570 hc         1 9M7       0.052325
     33 H5          -2.0470     2.6010    -1.1420 hc         1 9M7       0.052325
     34 H6           0.5610    -1.3280     0.9960 hc         1 9M7       0.052325
     35 H7           0.2220     0.1350     1.9060 hc         1 9M7       0.052325
     36 H8          -5.8030     2.3110     0.6490 hc         1 9M7       0.040450
     37 H9          -4.6320     2.3450     1.9510 hc         1 9M7       0.040450
     38 H10         -2.2640    -4.1630     2.0940 hc         1 9M7       0.040450
     39 H11         -2.6130    -2.7130     3.0150 hc         1 9M7       0.040450
     40 H12         -2.1260    -3.0640    -3.7230 hc         1 9M7       0.068367
     41 H13         -1.9840    -4.1220    -2.3200 hc         1 9M7       0.068367
     42 H14         -2.8620    -2.5970    -2.1910 hc         1 9M7       0.068367
     43 H15         -4.3560     3.7620    -0.7410 hc         1 9M7       0.043200
     44 H16         -4.6520     4.5270     0.8080 hc         1 9M7       0.043200
     45 H17         -0.4670    -3.6890     3.7630 hc         1 9M7       0.043200
     46 H18          0.1520    -3.6580     2.1240 hc         1 9M7       0.043200
     47 H19          0.5260     1.4470    -2.0280 ha         1 9M7       0.142000
     48 H20          1.7980     3.3680    -1.2000 ha         1 9M7       0.138000
     49 H21          4.3970     0.7030     0.9340 ha         1 9M7       0.146000
     50 H22         -2.3660     1.3240     1.5850 h1         1 9M7       0.047200
     51 H23         -2.4500     3.7780     1.6460 hc         1 9M7       0.040450
     52 H24         -2.2430     4.6760     0.1550 hc         1 9M7       0.040450
     53 H25         -3.0500    -2.3230     0.6020 hc         1 9M7       0.052325
     54 H26         -1.4130    -2.8400     0.2200 hc         1 9M7       0.052325
     55 H27          1.0430    -1.7240     3.3640 hc         1 9M7       0.040450
     56 H28         -0.5750    -1.2240     3.8180 hc         1 9M7       0.040450
     57 C20         -1.9980    -3.0800    -2.6400 c3         1 9M7      -0.140400
@<TRIPOS>BOND
     1     1     2 1   
     2     1    23 1   
     3     1    25 1   
     4     2     6 1   
     5     2    27 1   
     6     2    29 1   
     7     3    14 2   
     8     3    17 1   
     9     3    23 1   
    10     4     7 1   
    11     4    25 1   
    12     4    30 1   
    13     4    31 1   
    14     5    25 1   
    15     5    26 1   
    16     5    32 1   
    17     5    33 1   
    18     6    28 1   
    19     6    34 1   
    20     6    35 1   
    21     7    10 1   
    22     7    36 1   
    23     7    37 1   
    24     8    11 1   
    25     8    27 1   
    26     8    38 1   
    27     8    39 1   
    28     9    12 ar  
    29     9    17 1   
    30     9    21 ar  
    31    10    26 1   
    32    10    43 1   
    33    10    44 1   
    34    11    28 1   
    35    11    45 1   
    36    11    46 1   
    37    12    18 ar  
    38    12    47 1   
    39    13    18 ar  
    40    13    19 1   
    41    13    20 ar  
    42    14    15 1   
    43    14    57 1   
    44    15    16 1   
    45    16    17 2   
    46    18    48 1   
    47    20    21 ar  
    48    20    49 1   
    49    21    22 1   
    50    23    24 2   
    51    25    50 1   
    52    26    51 1   
    53    26    52 1   
    54    27    53 1   
    55    27    54 1   
    56    28    55 1   
    57    28    56 1   
    58    40    57 1   
    59    41    57 1   
    60    42    57 1   
@<TRIPOS>SUBSTRUCTURE
     1 9M7         1 TEMP              0 ****  ****    0 ROOT
