@<TRIPOS>MOLECULE
9M7
   57    60     1     0     0
SMALL
No Charge or Current Charge


@<TRIPOS>ATOM
      1 N1          -1.6620     0.0760    -0.0020 n          1 9M7      -0.397800
      2 C4          -1.4240    -0.8180     1.1890 c6         1 9M7       0.122200
      3 C5          -0.6970    -1.3240    -1.8450 cc         1 9M7      -0.268600
      4 C7          -3.9590     1.1260     0.4690 c6         1 9M7      -0.089650
      5 C8          -1.9930     2.5910    -0.3470 c6         1 9M7      -0.089650
      6 C10         -0.2050    -0.4080     2.0620 c6         1 9M7      -0.089650
      7 C13         -4.6410     2.3870     1.0540 c6         1 9M7      -0.072150
      8 C15         -1.4300    -3.1270     2.2810 c6         1 9M7      -0.072150
      9 C17          1.5130    -0.4060    -0.8720 ca         1 9M7      -0.128500
     10 C21         -4.2430     3.6550     0.2600 c6         1 9M7      -0.077400
     11 C22         -0.2290    -2.7120     3.1690 c6         1 9M7      -0.077400
     12 C24          1.1760     0.9600    -1.0140 ca         1 9M7      -0.071000
     13 C28          3.1200     1.6270     0.2790 ca         1 9M7       0.134000
     14 C12         -0.9280    -2.3030    -2.7570 cd         1 9M7       0.222300
     15 O19          0.2130    -3.0180    -2.9670 os         1 9M7      -0.063700
     16 N18          1.2630    -2.4250    -2.1960 nd         1 9M7      -0.334300
     17 C11          0.6870    -1.4240    -1.5440 cc         1 9M7       0.346500
     18 C27          1.9660     1.9670    -0.4360 ca         1 9M7      -0.109000
     19 Cl29         4.1060     2.8870     1.0090 cl         1 9M7      -0.187000
     20 C25          3.4930     0.2840     0.4050 ca         1 9M7      -0.108000
     21 C23          2.7110    -0.7300    -0.1750 ca         1 9M7       0.151000
     22 Cl26         3.2160    -2.3940     0.1350 cl         1 9M7      -0.173000
     23 C2          -1.7340    -0.3960    -1.3460 c          1 9M7       0.646700
     24 O6          -2.6500    -0.0570    -2.0800 o          1 9M7      -0.602100
     25 C3          -2.4120     1.3040     0.4130 c6         1 9M7       0.122200
     26 C14         -2.7050     3.8400     0.2310 c6         1 9M7      -0.072150
     27 C9          -1.4210    -2.3550     0.9380 c6         1 9M7      -0.089650
     28 C16         -0.2030    -1.1810     3.4040 c6         1 9M7      -0.072150
     29 H1          -2.2960    -0.6710     1.8430 h1         1 9M7       0.047200
     30 H2          -4.2230     0.2520     1.0780 hc         1 9M7       0.052325
     31 H3          -4.3660     0.9390    -0.5330 hc         1 9M7       0.052325
     32 H4          -0.9090     2.7350    -0.2650 hc         1 9M7       0.052325
     33 H5          -2.2240     2.4990    -1.4160 hc         1 9M7       0.052325
     34 H6           0.7300    -0.6210     1.5430 hc         1 9M7       0.052325
     35 H7          -0.2100     0.6720     2.2620 hc         1 9M7       0.052325
     36 H8          -5.7320     2.2620     1.0360 hc         1 9M7       0.040450
     37 H9          -4.3580     2.5060     2.1100 hc         1 9M7       0.040450
     38 H10         -1.3950    -4.2080     2.0890 hc         1 9M7       0.040450
     39 H11         -2.3710    -2.9360     2.8150 hc         1 9M7       0.040450
     40 H12         -2.5090    -1.9980    -4.1860 hc         1 9M7       0.068367
     41 H13         -2.0420    -3.6940    -3.9760 hc         1 9M7       0.068367
     42 H14         -3.0030    -2.8820    -2.7300 hc         1 9M7       0.068367
     43 H15         -4.6270     3.5860    -0.7670 hc         1 9M7       0.043200
     44 H16         -4.7150     4.5390     0.7100 hc         1 9M7       0.043200
     45 H17         -0.2800    -3.2370     4.1330 hc         1 9M7       0.043200
     46 H18          0.7090    -3.0280     2.6910 hc         1 9M7       0.043200
     47 H19          0.3180     1.2560    -1.6120 ha         1 9M7       0.142000
     48 H20          1.6920     3.0120    -0.5550 ha         1 9M7       0.138000
     49 H21          4.3870     0.0240     0.9640 ha         1 9M7       0.146000
     50 H22         -2.1150     1.4880     1.4540 h1         1 9M7       0.047200
     51 H23         -2.3390     4.0350     1.2490 hc         1 9M7       0.040450
     52 H24         -2.4470     4.7250    -0.3660 hc         1 9M7       0.040450
     53 H25         -2.2970    -2.6460     0.3420 hc         1 9M7       0.052325
     54 H26         -0.5300    -2.6660     0.3820 hc         1 9M7       0.052325
     55 H27          0.6870    -0.9100     3.9880 hc         1 9M7       0.040450
     56 H28         -1.0730    -0.8830     4.0060 hc         1 9M7       0.040450
     57 C20         -2.1890    -2.7430    -3.4500 c3         1 9M7      -0.140400
@<TRIPOS>BOND
     1     1     2 1   
     2     1    23 1   
     3     1    25 1   
     4     2     6 1   
     5     2    27 1   
     6     2    29 1   
     7     3    14 2   
     8     3    17 1   
     9     3    23 1   
    10     4     7 1   
    11     4    25 1   
    12     4    30 1   
    13     4    31 1   
    14     5    25 1   
    15     5    26 1   
    16     5    32 1   
    17     5    33 1   
    18     6    28 1   
    19     6    34 1   
    20     6    35 1   
    21     7    10 1   
    22     7    36 1   
    23     7    37 1   
    24     8    11 1   
    25     8    27 1   
    26     8    38 1   
    27     8    39 1   
    28     9    12 ar  
    29     9    17 1   
    30     9    21 ar  
    31    10    26 1   
    32    10    43 1   
    33    10    44 1   
    34    11    28 1   
    35    11    45 1   
    36    11    46 1   
    37    12    18 ar  
    38    12    47 1   
    39    13    18 ar  
    40    13    19 1   
    41    13    20 ar  
    42    14    15 1   
    43    14    57 1   
    44    15    16 1   
    45    16    17 2   
    46    18    48 1   
    47    20    21 ar  
    48    20    49 1   
    49    21    22 1   
    50    23    24 2   
    51    25    50 1   
    52    26    51 1   
    53    26    52 1   
    54    27    53 1   
    55    27    54 1   
    56    28    55 1   
    57    28    56 1   
    58    40    57 1   
    59    41    57 1   
    60    42    57 1   
@<TRIPOS>SUBSTRUCTURE
     1 9M7         1 TEMP              0 ****  ****    0 ROOT
