@<TRIPOS>MOLECULE
9M8
   62    65     1     0     0
SMALL
No Charge or Current Charge


@<TRIPOS>ATOM
      1 C1           2.7130    -2.2930    -3.7350 c3         1 9M8       0.144100
      2 C2           3.3390    -1.0530    -1.6860 c3         1 9M8       0.156500
      3 C3           3.1620    -0.8410    -0.1890 cc         1 9M8       0.356900
      4 C5           2.4160    -0.0200     1.7560 ca         1 9M8      -0.037200
      5 C10          2.3670     0.2060     0.4180 ca         1 9M8      -0.230900
      6 C11         -0.0070     3.1570     0.2110 cp         1 9M8      -0.036000
      7 C15         -2.2830    -1.7630     0.2320 cc         1 9M8      -0.214300
      8 C16         -1.2620    -2.6350     0.4790 cd         1 9M8      -0.119300
      9 C17         -0.1120    -2.5380     1.4500 c3         1 9M8      -0.044800
     10 C19         -3.0560    -2.3620    -0.7860 cc         1 9M8       0.265300
     11 C20         -4.2900    -1.7300    -1.3700 c3         1 9M8      -0.119400
     12 C23         -0.2190     5.3600    -0.8570 ca         1 9M8      -0.094000
     13 C24          0.5770     4.3090    -0.3680 ca         1 9M8      -0.107000
     14 C6           1.6990     0.7620     2.6700 ca         1 9M8      -0.135000
     15 C7           0.9100     1.8100     2.1500 ca         1 9M8      -0.044000
     16 C8           0.8620     2.0730     0.7490 cp         1 9M8      -0.080000
     17 C9           1.6170     1.2540    -0.1320 ca         1 9M8      -0.028000
     18 C13         -1.9810     0.7340     0.0100 c3         1 9M8       0.162600
     19 C14         -2.5510    -0.4140     0.8610 c3         1 9M8       0.009900
     20 C21         -2.2220     4.1400    -0.2150 ca         1 9M8       0.156000
     21 C22         -1.6200     5.2780    -0.7750 ca         1 9M8      -0.143000
     22 C12         -1.4260     3.0810     0.2650 ca         1 9M8       0.079100
     23 F           -3.5730     4.0640    -0.1570 f          1 9M8      -0.167000
     24 O           -2.0170     1.9460     0.7830 os         1 9M8      -0.356100
     25 N4          -2.5960    -3.5260    -1.1940 nd         1 9M8      -0.529800
     26 N3          -1.4690    -3.6990    -0.4070 na         1 9M8       0.132800
     27 N2           3.2210    -1.1240     1.9340 na         1 9M8       0.075600
     28 N1           3.6960    -1.6570     0.7390 nd         1 9M8      -0.505100
     29 N            2.3550    -1.9780    -2.3350 n3         1 9M8      -0.710600
     30 C            0.9470    -1.5320    -2.2020 c3         1 9M8       0.144100
     31 H1           3.7290    -2.7060    -3.7920 h1         1 9M8       0.033367
     32 H2           2.0230    -3.0380    -4.1540 h1         1 9M8       0.033367
     33 H3           2.6700    -1.3930    -4.3620 h1         1 9M8       0.033367
     34 H4           3.3030    -0.0710    -2.1750 h1         1 9M8       0.047200
     35 H5           4.3560    -1.4380    -1.8400 h1         1 9M8       0.047200
     36 H6           2.5990    -2.0650     3.7130 h1         1 9M8       0.054367
     37 H7           4.2170    -2.5550     3.1290 h1         1 9M8       0.054367
     38 H8           3.9900    -0.9520     3.8890 h1         1 9M8       0.054367
     39 H9          -0.2530    -3.2210     2.2950 hc         1 9M8       0.056700
     40 H10          0.8380    -2.7930     0.9660 hc         1 9M8       0.056700
     41 H11         -0.0120    -1.5250     1.8530 hc         1 9M8       0.056700
     42 H12          0.3580    -4.5900    -0.9560 h1         1 9M8       0.055367
     43 H13         -0.4830    -5.3680     0.4190 h1         1 9M8       0.055367
     44 H14         -1.0880    -5.6030    -1.2480 h1         1 9M8       0.055367
     45 H15         -5.0340    -1.5340    -0.5890 hc         1 9M8       0.046367
     46 H16         -4.0490    -0.7800    -1.8600 hc         1 9M8       0.046367
     47 H17         -4.7560    -2.3820    -2.1180 hc         1 9M8       0.046367
     48 H18          0.2500     6.2390    -1.2950 ha         1 9M8       0.120000
     49 H19          1.6610     4.3870    -0.4270 ha         1 9M8       0.122000
     50 H20          1.7310     0.5620     3.7390 ha         1 9M8       0.123000
     51 H21          0.3240     2.4260     2.8290 ha         1 9M8       0.126000
     52 H22          1.5810     1.4180    -1.2070 ha         1 9M8       0.121000
     53 H23         -0.9530     0.4800    -0.2720 h1         1 9M8       0.037200
     54 H24         -2.5650     0.8440    -0.9120 h1         1 9M8       0.037200
     55 H25         -3.6270    -0.2590     1.0040 hc         1 9M8       0.056200
     56 H26         -2.1000    -0.3760     1.8590 hc         1 9M8       0.056200
     57 H27         -2.2380     6.0900    -1.1500 ha         1 9M8       0.133000
     58 H29          0.2620    -2.2760    -2.6300 h1         1 9M8       0.033367
     59 H30          0.6730    -1.3980    -1.1480 h1         1 9M8       0.033367
     60 H31          0.7870    -0.5790    -2.7220 h1         1 9M8       0.033367
     61 C4           3.5260    -1.7110     3.2470 c3         1 9M8       0.081900
     62 C18         -0.6190    -4.8900    -0.5580 c3         1 9M8       0.071900
@<TRIPOS>BOND
     1     1    29 1   
     2     1    31 1   
     3     1    32 1   
     4     1    33 1   
     5     2     3 1   
     6     2    29 1   
     7     2    34 1   
     8     2    35 1   
     9     3     5 1   
    10     3    28 2   
    11     4     5 ar  
    12     4    14 ar  
    13     4    27 1   
    14     5    17 ar  
    15     6    13 ar  
    16     6    16 1   
    17     6    22 ar  
    18     7     8 2   
    19     7    10 1   
    20     7    19 1   
    21     8     9 1   
    22     8    26 1   
    23     9    39 1   
    24     9    40 1   
    25     9    41 1   
    26    10    11 1   
    27    10    25 2   
    28    11    45 1   
    29    11    46 1   
    30    11    47 1   
    31    12    13 ar  
    32    12    21 ar  
    33    12    48 1   
    34    13    49 1   
    35    14    15 ar  
    36    14    50 1   
    37    15    16 ar  
    38    15    51 1   
    39    16    17 ar  
    40    17    52 1   
    41    18    19 1   
    42    18    24 1   
    43    18    53 1   
    44    18    54 1   
    45    19    55 1   
    46    19    56 1   
    47    20    21 ar  
    48    20    22 ar  
    49    20    23 1   
    50    21    57 1   
    51    22    24 1   
    52    25    26 1   
    53    26    62 1   
    54    27    28 1   
    55    27    61 1   
    56    29    30 1   
    57    30    58 1   
    58    30    59 1   
    59    30    60 1   
    60    36    61 1   
    61    37    61 1   
    62    38    61 1   
    63    42    62 1   
    64    43    62 1   
    65    44    62 1   
@<TRIPOS>SUBSTRUCTURE
     1 9M8         1 TEMP              0 ****  ****    0 ROOT
