@<TRIPOS>MOLECULE
9M8
   62    65     1     0     0
SMALL
bcc


@<TRIPOS>ATOM
      1 C1           3.0130    -2.5400    -3.3800 c3         1 9M8       0.144100
      2 C2           3.4670    -1.0760    -1.5450 c3         1 9M8       0.156500
      3 C3           3.1620    -0.7690    -0.1160 cc         1 9M8       0.356900
      4 C5           2.3630     0.0510     1.8040 ca         1 9M8      -0.037200
      5 C10          2.3660     0.2810     0.4190 ca         1 9M8      -0.230900
      6 C11         -0.0180     3.1650     0.1770 cp         1 9M8      -0.036000
      7 C15         -2.2810    -1.6960     0.2940 cc         1 9M8      -0.279600
      8 C16         -1.2400    -2.6060     0.2700 cd         1 9M8      -0.068600
      9 C17          0.0620    -2.6060     0.9860 c3         1 9M8      -0.044800
     10 C19         -3.2480    -2.2400    -0.5770 cc         1 9M8       0.330600
     11 C20         -4.5900    -1.6840    -0.9110 c3         1 9M8      -0.119400
     12 C23         -0.3270     5.2550    -0.9970 ca         1 9M8      -0.112000
     13 C24          0.5080     4.2790    -0.4720 ca         1 9M8      -0.125000
     14 C6           1.6160     0.8460     2.6820 ca         1 9M8      -0.153000
     15 C7           0.8650     1.8530     2.1240 ca         1 9M8      -0.062000
     16 C8           0.8590     2.1090     0.7310 cp         1 9M8      -0.080000
     17 C9           1.6230     1.3370    -0.1180 ca         1 9M8      -0.046000
     18 C13         -1.9910     0.7600     0.1290 c3         1 9M8       0.139400
     19 C14         -2.3490    -0.4030     1.0380 c3         1 9M8       0.009900
     20 C21         -2.2190     4.0180    -0.2530 ca         1 9M8       0.120900
     21 C22         -1.7050     5.1330    -0.8830 ca         1 9M8      -0.161000
     22 C12         -1.4050     3.0290     0.2850 ca         1 9M8       0.079100
     23 F           -3.5470     3.8710    -0.1530 f          1 9M8      -0.131900
     24 O           -1.9680     1.9610     0.9030 os         1 9M8      -0.332900
     25 N4          -2.8320    -3.3850    -1.0870 nd         1 9M8      -0.529800
     26 N3          -1.6240    -3.5960    -0.5610 na         1 9M8       0.111400
     27 N2           3.1410    -1.0380     2.0080 na         1 9M8       0.104900
     28 N1           3.6030    -1.5330     0.8560 nd         1 9M8      -0.505100
     29 N            2.5100    -2.0050    -2.1320 n3         1 9M8      -0.710600
     30 C            1.2080    -1.4030    -2.3240 c3         1 9M8       0.144100
     31 H1           3.9730    -3.0320    -3.2200 h1         1 9M8       0.033367
     32 H2           2.3170    -3.2840    -3.7690 h1         1 9M8       0.033367
     33 H3           3.1520    -1.7750    -4.1590 h1         1 9M8       0.033367
     34 H4           3.5270    -0.1360    -2.1180 h1         1 9M8       0.047200
     35 H5           4.4570    -1.5350    -1.5950 h1         1 9M8       0.047200
     36 H6           2.6090    -2.5000     3.4190 h1         1 9M8       0.054367
     37 H7           4.3470    -2.2120     3.2150 h1         1 9M8       0.054367
     38 H8           3.3530    -1.0330     4.0740 h1         1 9M8       0.054367
     39 H9           0.1380    -3.4330     1.6950 hc         1 9M8       0.056700
     40 H10          0.9100    -2.6790     0.3030 hc         1 9M8       0.056700
     41 H11          0.1750    -1.6800     1.5480 hc         1 9M8       0.056700
     42 H12         -0.3270    -4.5390    -1.9190 h1         1 9M8       0.055367
     43 H13         -0.1110    -4.9800    -0.2200 h1         1 9M8       0.055367
     44 H14         -1.5040    -5.5920    -1.1140 h1         1 9M8       0.055367
     45 H15         -5.2250    -1.6130    -0.0260 hc         1 9M8       0.046367
     46 H16         -4.5190    -0.6800    -1.3340 hc         1 9M8       0.046367
     47 H17         -5.1010    -2.3160    -1.6370 hc         1 9M8       0.046367
     48 H18          0.0940     6.1210    -1.4890 ha         1 9M8       0.138000
     49 H19          1.5820     4.3850    -0.5540 ha         1 9M8       0.140000
     50 H20          1.6050     0.6710     3.7490 ha         1 9M8       0.141000
     51 H21          0.2610     2.4750     2.7710 ha         1 9M8       0.144000
     52 H22          1.6090     1.5170    -1.1870 ha         1 9M8       0.139000
     53 H23         -1.0120     0.5780    -0.3230 h1         1 9M8       0.037200
     54 H24         -2.7180     0.8560    -0.6860 h1         1 9M8       0.037200
     55 H25         -3.3480    -0.2520     1.4580 hc         1 9M8       0.056200
     56 H26         -1.6530    -0.4150     1.8820 hc         1 9M8       0.056200
     57 H27         -2.3710     5.8860    -1.2830 ha         1 9M8       0.151000
     58 H29          0.5190    -2.1400    -2.7390 h1         1 9M8       0.033367
     59 H30          0.7900    -1.0650    -1.3770 h1         1 9M8       0.033367
     60 H31          1.2280    -0.5390    -3.0080 h1         1 9M8       0.033367
     61 C4           3.3690    -1.7380     3.2470 c3         1 9M8       0.052600
     62 C18         -0.8480    -4.7360    -0.9800 c3         1 9M8       0.042600
@<TRIPOS>BOND
     1     1    29 1   
     2     1    31 1   
     3     1    32 1   
     4     1    33 1   
     5     2     3 1   
     6     2    29 1   
     7     2    34 1   
     8     2    35 1   
     9     3     5 1   
    10     3    28 2   
    11     4     5 ar  
    12     4    14 ar  
    13     4    27 1   
    14     5    17 ar  
    15     6    13 ar  
    16     6    16 1   
    17     6    22 ar  
    18     7     8 2   
    19     7    10 1   
    20     7    19 1   
    21     8     9 1   
    22     8    26 1   
    23     9    39 1   
    24     9    40 1   
    25     9    41 1   
    26    10    11 1   
    27    10    25 2   
    28    11    45 1   
    29    11    46 1   
    30    11    47 1   
    31    12    13 ar  
    32    12    21 ar  
    33    12    48 1   
    34    13    49 1   
    35    14    15 ar  
    36    14    50 1   
    37    15    16 ar  
    38    15    51 1   
    39    16    17 ar  
    40    17    52 1   
    41    18    19 1   
    42    18    24 1   
    43    18    53 1   
    44    18    54 1   
    45    19    55 1   
    46    19    56 1   
    47    20    21 ar  
    48    20    22 ar  
    49    20    23 1   
    50    21    57 1   
    51    22    24 1   
    52    25    26 1   
    53    26    62 1   
    54    27    28 1   
    55    27    61 1   
    56    29    30 1   
    57    30    58 1   
    58    30    59 1   
    59    30    60 1   
    60    36    61 1   
    61    37    61 1   
    62    38    61 1   
    63    42    62 1   
    64    43    62 1   
    65    44    62 1   
@<TRIPOS>SUBSTRUCTURE
     1 9M8         1 TEMP              0 ****  ****    0 ROOT
