@<TRIPOS>MOLECULE
9M9
   38    40     1     0     0
SMALL
bcc


@<TRIPOS>ATOM
      1 N01         -4.1950    -0.9080    -0.8040 nb         1 9M9      -0.759000
      2 C02         -5.3750    -0.8780    -0.2290 ca         1 9M9       0.683200
      3 N02         -6.3790    -1.6020    -0.7820 nv         1 9M9      -0.960500
      4 C03         -5.6500    -0.0840     0.9290 ca         1 9M9      -0.292300
      5 C04         -4.6510     0.6670     1.4580 ca         1 9M9      -0.047000
      6 C05         -3.3670     0.6610     0.8560 ca         1 9M9      -0.188300
      7 C06         -2.2820     1.4190     1.3400 ca         1 9M9      -0.096000
      8 C07         -1.0670     1.3790     0.7120 ca         1 9M9      -0.123000
      9 C08         -0.8860     0.5690    -0.4310 ca         1 9M9      -0.069300
     10 C09         -1.9310    -0.1810    -0.9110 ca         1 9M9      -0.169300
     11 C10         -3.1990    -0.1530    -0.2870 ca         1 9M9       0.453600
     12 C11          0.4440     0.5510    -1.1230 c3         1 9M9       0.185700
     13 O12          1.4110     0.0910    -0.1940 os         1 9M9      -0.318900
     14 C21          4.9760    -0.4020     0.1220 ca         1 9M9      -0.054300
     15 C22          5.4220    -0.0750    -1.1590 ca         1 9M9      -0.168000
     16 C23          4.5140     0.3050    -2.1320 ca         1 9M9      -0.093000
     17 C24          3.1530     0.3780    -1.8560 ca         1 9M9      -0.217000
     18 C25          2.7070     0.0590    -0.5760 ca         1 9M9       0.137100
     19 C26          3.6210    -0.3270     0.4050 ca         1 9M9      -0.139000
     20 N28          5.5710    -0.4660     2.5100 n8         1 9M9      -0.885800
     21 HN02        -6.1290    -2.3080    -1.4540 hn         1 9M9       0.423800
     22 HN0A        -7.2000    -1.7950    -0.2360 hn         1 9M9       0.423800
     23 H03         -6.6400    -0.0900     1.3670 ha         1 9M9       0.138000
     24 H04         -4.8270     1.2750     2.3380 ha         1 9M9       0.135000
     25 H06         -2.4230     2.0410     2.2160 ha         1 9M9       0.130000
     26 H07         -0.2440     1.9740     1.0870 ha         1 9M9       0.140000
     27 H09         -1.8020    -0.8110    -1.7830 ha         1 9M9       0.146000
     28 H11          0.4080    -0.0980    -2.0040 h1         1 9M9       0.041700
     29 H11A         0.7020     1.5600    -1.4660 h1         1 9M9       0.041700
     30 H22          6.4800    -0.1140    -1.3900 ha         1 9M9       0.128000
     31 H23          4.8610     0.5620    -3.1240 ha         1 9M9       0.127000
     32 H24          2.4710     0.6810    -2.6390 ha         1 9M9       0.133000
     33 H26          3.2640    -0.5670     1.3990 ha         1 9M9       0.164000
     34 H27          6.0160    -1.9500     1.1410 h1         1 9M9       0.035200
     35 H27A         6.9620    -0.5050     0.8750 h1         1 9M9       0.035200
     36 HN28         6.2140    -0.8730     3.1770 hn         1 9M9       0.340800
     37 HN2A         5.6640     0.5370     2.6100 hn         1 9M9       0.340800
     38 C27          5.9640    -0.8570     1.1680 c3         1 9M9       0.195100
@<TRIPOS>BOND
     1     1     2 ar  
     2     1    11 ar  
     3     2     3 1   
     4     2     4 ar  
     5     3    21 1   
     6     3    22 1   
     7     4     5 ar  
     8     4    23 1   
     9     5     6 ar  
    10     5    24 1   
    11     6     7 ar  
    12     6    11 ar  
    13     7     8 ar  
    14     7    25 1   
    15     8     9 ar  
    16     8    26 1   
    17     9    10 ar  
    18     9    12 1   
    19    10    11 ar  
    20    10    27 1   
    21    12    13 1   
    22    12    28 1   
    23    12    29 1   
    24    13    18 1   
    25    14    15 ar  
    26    14    19 ar  
    27    14    38 1   
    28    15    16 ar  
    29    15    30 1   
    30    16    17 ar  
    31    16    31 1   
    32    17    18 ar  
    33    17    32 1   
    34    18    19 ar  
    35    19    33 1   
    36    20    36 1   
    37    20    37 1   
    38    20    38 1   
    39    34    38 1   
    40    35    38 1   
@<TRIPOS>SUBSTRUCTURE
     1 9M9         1 TEMP              0 ****  ****    0 ROOT
