@<TRIPOS>MOLECULE
9M9
   38    40     1     0     0
SMALL
No Charge or Current Charge


@<TRIPOS>ATOM
      1 N01         -3.9270    -1.2110    -0.5370 nb         1 9M9      -0.759000
      2 C02         -5.1400    -1.2530    -0.0040 ca         1 9M9       0.617900
      3 N02         -5.7930    -2.3480    -0.3950 nv         1 9M9      -1.070900
      4 C03         -5.6730    -0.2980     0.8630 ca         1 9M9      -0.209000
      5 C04         -4.8750     0.8040     1.2030 ca         1 9M9      -0.029000
      6 C05         -3.5840     0.8780     0.6490 ca         1 9M9      -0.123000
      7 C06         -2.7440     1.9630     0.9580 ca         1 9M9      -0.078000
      8 C07         -1.4560     2.0350     0.4050 ca         1 9M9      -0.105000
      9 C08         -0.9990     1.0240    -0.4600 ca         1 9M9      -0.069300
     10 C09         -1.8450    -0.0610    -0.7640 ca         1 9M9      -0.086000
     11 C10         -3.1400    -0.1530    -0.2220 ca         1 9M9       0.323000
     12 C11          0.3980     1.0980    -1.0600 c3         1 9M9       0.208900
     13 O12          1.2930     0.3440    -0.2250 os         1 9M9      -0.342100
     14 C21          4.8080    -0.7050     0.1340 ca         1 9M9      -0.054300
     15 C22          5.3920    -0.0990    -0.9960 ca         1 9M9      -0.150000
     16 C23          4.6080     0.6610    -1.8790 ca         1 9M9      -0.075000
     17 C24          3.2320     0.8230    -1.6410 ca         1 9M9      -0.199000
     18 C25          2.6370     0.2210    -0.5110 ca         1 9M9       0.137100
     19 C26          3.4290    -0.5380     0.3670 ca         1 9M9      -0.121000
     20 N28          6.0910    -0.7480     2.2600 n8         1 9M9      -0.996200
     21 HN02        -5.2020    -3.0540    -0.8170 hn         1 9M9       0.479000
     22 HN0A        -6.5400    -2.6850     0.2020 hn         1 9M9       0.479000
     23 H03         -6.6770    -0.4050     1.2610 ha         1 9M9       0.120000
     24 H04         -5.2490     1.5750     1.8740 ha         1 9M9       0.117000
     25 H06         -3.0860     2.7510     1.6270 ha         1 9M9       0.112000
     26 H07         -0.8110     2.8760     0.6520 ha         1 9M9       0.122000
     27 H09         -1.4940    -0.8460    -1.4290 ha         1 9M9       0.128000
     28 H11          0.3800     0.6870    -2.0780 h1         1 9M9       0.041700
     29 H11A         0.7170     2.1470    -1.1210 h1         1 9M9       0.041700
     30 H22          6.4560    -0.2180    -1.1900 ha         1 9M9       0.110000
     31 H23          5.0680     1.1250    -2.7500 ha         1 9M9       0.109000
     32 H24          2.6500     1.4160    -2.3410 ha         1 9M9       0.115000
     33 H26          2.9670    -0.9980     1.2370 ha         1 9M9       0.146000
     34 H27          5.0760    -2.4010     1.4420 h1         1 9M9       0.035200
     35 H27A         6.5450    -1.9130     0.5670 h1         1 9M9       0.035200
     36 HN28         6.7320    -1.3180     2.8250 hn         1 9M9       0.396000
     37 HN2A         6.6790     0.0260     1.9310 hn         1 9M9       0.396000
     38 C27          5.6550    -1.5360     1.0910 c3         1 9M9       0.195100
@<TRIPOS>BOND
     1     1     2 ar  
     2     1    11 ar  
     3     2     3 1   
     4     2     4 ar  
     5     3    21 1   
     6     3    22 1   
     7     4     5 ar  
     8     4    23 1   
     9     5     6 ar  
    10     5    24 1   
    11     6     7 ar  
    12     6    11 ar  
    13     7     8 ar  
    14     7    25 1   
    15     8     9 ar  
    16     8    26 1   
    17     9    10 ar  
    18     9    12 1   
    19    10    11 ar  
    20    10    27 1   
    21    12    13 1   
    22    12    28 1   
    23    12    29 1   
    24    13    18 1   
    25    14    15 ar  
    26    14    19 ar  
    27    14    38 1   
    28    15    16 ar  
    29    15    30 1   
    30    16    17 ar  
    31    16    31 1   
    32    17    18 ar  
    33    17    32 1   
    34    18    19 ar  
    35    19    33 1   
    36    20    36 1   
    37    20    37 1   
    38    20    38 1   
    39    34    38 1   
    40    35    38 1   
@<TRIPOS>SUBSTRUCTURE
     1 9M9         1 TEMP              0 ****  ****    0 ROOT
