@<TRIPOS>MOLECULE
9MB
   34    36     1     0     0
SMALL
bcc


@<TRIPOS>ATOM
      1 O05          1.6120    -2.2630    -0.3270 os         1 9MB      -0.370400
      2 C02          3.5220     0.4880     1.0950 ca         1 9MB       0.121100
      3 C20          2.1720    -0.1340    -1.2820 ca         1 9MB      -0.137000
      4 C21          2.8380     1.0750    -1.1530 ca         1 9MB      -0.110000
      5 C22          3.4980     1.3700     0.0200 ca         1 9MB       0.029900
      6 F23          4.1520     2.5420     0.1480 f          1 9MB      -0.151900
      7 C04          2.1890    -1.0200    -0.2160 ca         1 9MB       0.141100
      8 C03          2.8460    -0.7200     0.9640 ca         1 9MB      -0.148000
      9 C06          0.2670    -2.3680    -0.4030 ca         1 9MB       0.651600
     10 C07         -0.2470    -3.6280    -0.7110 ca         1 9MB      -0.256300
     11 C08         -1.6200    -3.7420    -0.7760 ca         1 9MB      -0.069000
     12 C09         -2.4190    -2.6260    -0.5470 ca         1 9MB      -0.265300
     13 C10         -1.7960    -1.4240    -0.2460 cp         1 9MB       0.509800
     14 C11         -2.5910    -0.2080     0.0250 cp         1 9MB      -0.154500
     15 C12         -3.7070    -0.2610     0.8630 ca         1 9MB      -0.125000
     16 C13         -4.4450     0.8810     1.1180 ca         1 9MB      -0.108000
     17 C14         -4.0920     2.0940     0.5420 ca         1 9MB      -0.192000
     18 C15         -2.9920     2.1700    -0.3020 ca         1 9MB       0.093100
     19 O16         -2.5860     3.2950    -0.9150 oh         1 9MB      -0.476100
     20 C17         -2.2590     1.0100    -0.5450 ca         1 9MB       0.143900
     21 F18         -1.2260     1.1030    -1.3920 f          1 9MB      -0.116900
     22 N19         -0.4680    -1.3110    -0.1710 nb         1 9MB      -0.722000
     23 H1           4.6060     1.6050     2.2150 ho         1 9MB       0.439000
     24 H2           1.6570    -0.3770    -2.2010 ha         1 9MB       0.153000
     25 H3           2.8470     1.7900    -1.9660 ha         1 9MB       0.153000
     26 H4           2.8490    -1.4250     1.7860 ha         1 9MB       0.162000
     27 H5           0.4060    -4.4700    -0.8920 ha         1 9MB       0.159000
     28 H6          -2.0730    -4.6940    -1.0180 ha         1 9MB       0.141000
     29 H7          -3.4950    -2.6900    -0.6160 ha         1 9MB       0.148000
     30 H8          -3.9780    -1.2000     1.3280 ha         1 9MB       0.140000
     31 H9          -5.3010     0.8350     1.7780 ha         1 9MB       0.138000
     32 H10         -4.6730     2.9860     0.7470 ha         1 9MB       0.135000
     33 H11         -3.1760     4.0250    -0.6950 ho         1 9MB       0.428000
     34 O01          4.1620     0.7490     2.2470 oh         1 9MB      -0.486100
@<TRIPOS>BOND
     1     1     7 1   
     2     1     9 1   
     3     2     5 ar  
     4     2     8 ar  
     5     2    34 1   
     6     3     4 ar  
     7     3     7 ar  
     8     3    24 1   
     9     4     5 ar  
    10     4    25 1   
    11     5     6 1   
    12     7     8 ar  
    13     8    26 1   
    14     9    10 ar  
    15     9    22 ar  
    16    10    11 ar  
    17    10    27 1   
    18    11    12 ar  
    19    11    28 1   
    20    12    13 ar  
    21    12    29 1   
    22    13    14 1   
    23    13    22 ar  
    24    14    15 ar  
    25    14    20 ar  
    26    15    16 ar  
    27    15    30 1   
    28    16    17 ar  
    29    16    31 1   
    30    17    18 ar  
    31    17    32 1   
    32    18    19 1   
    33    18    20 ar  
    34    19    33 1   
    35    20    21 1   
    36    23    34 1   
@<TRIPOS>SUBSTRUCTURE
     1 9MB         1 TEMP              0 ****  ****    0 ROOT
