@<TRIPOS>MOLECULE
9MB
   34    36     1     0     0
SMALL
No Charge or Current Charge


@<TRIPOS>ATOM
      1 O05          1.5900    -2.2470     0.1220 os         1 9MB      -0.370400
      2 C02          3.9430     0.4460     0.9920 ca         1 9MB       0.121100
      3 C20          2.1430    -0.2080    -1.0720 ca         1 9MB      -0.119000
      4 C21          2.8860     0.9840    -1.1430 ca         1 9MB      -0.092000
      5 C22          3.7820     1.3110    -0.1110 ca         1 9MB       0.065000
      6 F23          4.4950     2.4590    -0.1870 f          1 9MB      -0.187000
      7 C04          2.2900    -1.0650     0.0390 ca         1 9MB       0.141100
      8 C03          3.1990    -0.7430     1.0600 ca         1 9MB      -0.130000
      9 C06          0.2460    -2.3470    -0.1540 ca         1 9MB       0.586300
     10 C07         -0.2440    -3.5880    -0.5870 ca         1 9MB      -0.173000
     11 C08         -1.6130    -3.7310    -0.8560 ca         1 9MB      -0.051000
     12 C09         -2.4340    -2.6090    -0.6740 ca         1 9MB      -0.182000
     13 C10         -1.8730    -1.3860    -0.2350 cp         1 9MB       0.444500
     14 C11         -2.7250    -0.1750    -0.0100 cp         1 9MB      -0.154500
     15 C12         -3.9970    -0.3080     0.6070 ca         1 9MB      -0.107000
     16 C13         -4.8180     0.8080     0.8350 ca         1 9MB      -0.090000
     17 C14         -4.3930     2.0870     0.4470 ca         1 9MB      -0.174000
     18 C15         -3.1450     2.2530    -0.1750 ca         1 9MB       0.093100
     19 O16         -2.7520     3.5090    -0.5600 oh         1 9MB      -0.515100
     20 C17         -2.3140     1.1300    -0.4040 ca         1 9MB       0.179000
     21 F18         -1.1330     1.3160    -1.0440 f          1 9MB      -0.152000
     22 N19         -0.5560    -1.2780     0.0360 nb         1 9MB      -0.722000
     23 H1           5.2440     1.6100     1.7780 ho         1 9MB       0.478000
     24 H2           1.4550    -0.4630    -1.8740 ha         1 9MB       0.135000
     25 H3           2.7700     1.6510    -1.9940 ha         1 9MB       0.135000
     26 H4           3.3220    -1.4130     1.9050 ha         1 9MB       0.144000
     27 H5           0.4370    -4.4230    -0.7110 ha         1 9MB       0.141000
     28 H6          -2.0230    -4.6800    -1.1960 ha         1 9MB       0.123000
     29 H7          -3.4980    -2.6750    -0.8810 ha         1 9MB       0.130000
     30 H8          -4.3450    -1.2880     0.9280 ha         1 9MB       0.122000
     31 H9          -5.7860     0.6790     1.3160 ha         1 9MB       0.120000
     32 H10         -5.0390     2.9430     0.6280 ha         1 9MB       0.117000
     33 H11         -3.4570     4.1480    -0.3190 ho         1 9MB       0.467000
     34 O01          4.8200     0.7520     1.9970 oh         1 9MB      -0.525100
@<TRIPOS>BOND
     1     1     7 1   
     2     1     9 1   
     3     2     5 ar  
     4     2     8 ar  
     5     2    34 1   
     6     3     4 ar  
     7     3     7 ar  
     8     3    24 1   
     9     4     5 ar  
    10     4    25 1   
    11     5     6 1   
    12     7     8 ar  
    13     8    26 1   
    14     9    10 ar  
    15     9    22 ar  
    16    10    11 ar  
    17    10    27 1   
    18    11    12 ar  
    19    11    28 1   
    20    12    13 ar  
    21    12    29 1   
    22    13    14 1   
    23    13    22 ar  
    24    14    15 ar  
    25    14    20 ar  
    26    15    16 ar  
    27    15    30 1   
    28    16    17 ar  
    29    16    31 1   
    30    17    18 ar  
    31    17    32 1   
    32    18    19 1   
    33    18    20 ar  
    34    19    33 1   
    35    20    21 1   
    36    23    34 1   
@<TRIPOS>SUBSTRUCTURE
     1 9MB         1 TEMP              0 ****  ****    0 ROOT
