@<TRIPOS>MOLECULE
9MC
   61    65     1     0     0
SMALL
bcc


@<TRIPOS>ATOM
      1 C2          -4.9400    -0.3530    -1.7770 c5         1 9MC      -0.070400
      2 C12          3.3910    -2.1100     0.1710 ca         1 9MC      -0.031500
      3 C13          7.9630    -0.6070    -0.6810 c3         1 9MC       0.169400
      4 C14          6.4410    -0.5780    -0.6670 c3         1 9MC      -0.198600
      5 C15          4.0540    -1.0210     0.7220 ca         1 9MC      -0.271500
      6 C17         -0.1620    -0.8580     0.1800 cp         1 9MC      -0.062000
      7 C18         -0.9890    -0.2390     1.1130 ca         1 9MC      -0.107000
      8 C19         -3.1950     0.4530     2.0220 cx         1 9MC      -0.071400
      9 C20         -2.3700    -0.1820     0.9550 ca         1 9MC      -0.050300
     10 N1          -5.0160     2.8710     0.0260 nb         1 9MC      -0.676000
     11 C5          -6.4230    -0.7270    -1.7420 c5         1 9MC      -0.079900
     12 C6          -2.9620    -0.7620    -0.1770 ca         1 9MC      -0.031300
     13 C7          -2.1280    -1.3800    -1.1080 ca         1 9MC      -0.129000
     14 C9           1.2980    -0.9110     0.3730 cp         1 9MC       0.034000
     15 O3           6.1910    -2.4910     1.1370 o          1 9MC      -0.593300
     16 O2           6.2100    -0.1030     1.9230 o          1 9MC      -0.593300
     17 O1           8.3570    -0.1870    -1.9640 oh         1 9MC      -0.590800
     18 C16          3.3630     0.1190     1.1060 ca         1 9MC      -0.031500
     19 C10          1.9910     0.1650     0.9310 ca         1 9MC      -0.142000
     20 C11          2.0210    -2.0470    -0.0020 ca         1 9MC      -0.142000
     21 C8          -0.7570    -1.4320    -0.9420 ca         1 9MC      -0.109000
     22 C1          -4.4500    -0.7610    -0.3850 c5         1 9MC      -0.037400
     23 C3          -5.1170    -2.1320    -0.1970 c5         1 9MC      -0.070400
     24 C4          -6.5130    -1.9690    -0.8240 c5         1 9MC      -0.079900
     25 C27         -3.8950     1.7870     1.8160 cx         1 9MC      -0.174000
     26 C21         -2.7280     1.6650     2.7510 cx         1 9MC      -0.109400
     27 C22         -3.8340     2.5050     0.5230 ca         1 9MC       0.451600
     28 C23         -2.6440     2.7670    -0.1580 ca         1 9MC      -0.234300
     29 C24         -2.6960     3.4100    -1.3810 ca         1 9MC      -0.090000
     30 C25         -3.9280     3.7860    -1.8960 ca         1 9MC      -0.250300
     31 C26         -5.0550     3.4940    -1.1460 ca         1 9MC       0.404200
     32 H1          -4.4250    -0.9310    -2.5490 hc         1 9MC       0.043200
     33 H2          -4.7660     0.7030    -1.9870 hc         1 9MC       0.043200
     34 H3           3.9270    -3.0050    -0.1150 ha         1 9MC       0.155500
     35 H4           8.3510     0.0540     0.1010 h1         1 9MC       0.037700
     36 H5           8.3130    -1.6210    -0.4600 h1         1 9MC       0.037700
     37 H6           6.0590     0.4270    -0.8530 h1         1 9MC       0.107200
     38 H7           6.0260    -1.2580    -1.4140 h1         1 9MC       0.107200
     39 H8          -0.5520     0.1850     2.0100 ha         1 9MC       0.135000
     40 H9          -3.7830    -0.2510     2.6050 hc         1 9MC       0.091700
     41 H10         -6.9990     0.0980    -1.3170 hc         1 9MC       0.042700
     42 H11         -6.8260    -0.9130    -2.7380 hc         1 9MC       0.042700
     43 H12         -2.5560    -1.8290    -1.9960 ha         1 9MC       0.136000
     44 H13          9.3170    -0.2290    -2.0080 ho         1 9MC       0.408000
     45 H14          3.8790     0.9680     1.5340 ha         1 9MC       0.155500
     46 H15          1.4590     1.0630     1.2180 ha         1 9MC       0.140500
     47 H16          1.5050    -2.9050    -0.4130 ha         1 9MC       0.140500
     48 H17         -0.1480    -1.9070    -1.7020 ha         1 9MC       0.133000
     49 H18         -4.9110    -0.0730     0.3260 hc         1 9MC       0.070700
     50 H19         -4.5440    -2.8940    -0.7330 hc         1 9MC       0.043200
     51 H20         -5.1530    -2.4380     0.8500 hc         1 9MC       0.043200
     52 H21         -7.2710    -1.8220    -0.0540 hc         1 9MC       0.042700
     53 H22         -6.8020    -2.8630    -1.3760 hc         1 9MC       0.042700
     54 H23         -4.8730     1.8560     2.2760 hc         1 9MC       0.101700
     55 H24         -2.9310     1.7420     3.8110 hc         1 9MC       0.075700
     56 H25         -1.7910     2.1200     2.4530 hc         1 9MC       0.075700
     57 H26         -1.6890     2.4740     0.2550 ha         1 9MC       0.142000
     58 H27         -1.7830     3.6180    -1.9240 ha         1 9MC       0.136000
     59 H28         -4.0160     4.2930    -2.8470 ha         1 9MC       0.142000
     60 H29         -6.0390     3.7740    -1.5060 h4         1 9MC       0.018100
     61 S1           5.8100    -1.0950     0.9260 sy         1 9MC       1.081300
@<TRIPOS>BOND
     1     1    11 1   
     2     1    22 1   
     3     1    32 1   
     4     1    33 1   
     5     2     5 ar  
     6     2    20 ar  
     7     2    34 1   
     8     3     4 1   
     9     3    17 1   
    10     3    35 1   
    11     3    36 1   
    12     4    37 1   
    13     4    38 1   
    14     4    61 1   
    15     5    18 ar  
    16     5    61 1   
    17     6     7 ar  
    18     6    14 1   
    19     6    21 ar  
    20     7     9 ar  
    21     7    39 1   
    22     8     9 1   
    23     8    25 1   
    24     8    26 1   
    25     8    40 1   
    26     9    12 ar  
    27    10    27 ar  
    28    10    31 ar  
    29    11    24 1   
    30    11    41 1   
    31    11    42 1   
    32    12    13 ar  
    33    12    22 1   
    34    13    21 ar  
    35    13    43 1   
    36    14    19 ar  
    37    14    20 ar  
    38    15    61 2   
    39    16    61 2   
    40    17    44 1   
    41    18    19 ar  
    42    18    45 1   
    43    19    46 1   
    44    20    47 1   
    45    21    48 1   
    46    22    23 1   
    47    22    49 1   
    48    23    24 1   
    49    23    50 1   
    50    23    51 1   
    51    24    52 1   
    52    24    53 1   
    53    25    26 1   
    54    25    27 1   
    55    25    54 1   
    56    26    55 1   
    57    26    56 1   
    58    27    28 ar  
    59    28    29 ar  
    60    28    57 1   
    61    29    30 ar  
    62    29    58 1   
    63    30    31 ar  
    64    30    59 1   
    65    31    60 1   
@<TRIPOS>SUBSTRUCTURE
     1 9MC         1 TEMP              0 ****  ****    0 ROOT
