@<TRIPOS>MOLECULE
9MC
   61    65     1     0     0
SMALL
No Charge or Current Charge


@<TRIPOS>ATOM
      1 C2          -4.9350    -0.2880    -1.6860 c5         1 9MC      -0.070400
      2 C12          3.4370    -2.2200     0.1880 ca         1 9MC      -0.013500
      3 C13          8.0580    -0.5170    -0.6690 c3         1 9MC       0.192600
      4 C14          6.5290    -0.5450    -0.6280 c3         1 9MC      -0.309400
      5 C15          4.1330    -1.1250     0.7380 ca         1 9MC      -0.271500
      6 C17         -0.1790    -0.9460     0.2370 cp         1 9MC      -0.062000
      7 C18         -0.9980    -0.2730     1.1720 ca         1 9MC      -0.089000
      8 C19         -3.1830     0.5540     2.0770 cx         1 9MC      -0.071400
      9 C20         -2.3980    -0.1910     1.0220 ca         1 9MC      -0.050300
     10 N1          -5.0850     3.0710     0.0910 nb         1 9MC      -0.676000
     11 C5          -6.4480    -0.6320    -1.7080 c5         1 9MC      -0.079900
     12 C6          -3.0300    -0.8240    -0.0850 ca         1 9MC      -0.031300
     13 C7          -2.2090    -1.5030    -1.0170 ca         1 9MC      -0.111000
     14 C9           1.3080    -1.0080     0.4100 cp         1 9MC       0.034000
     15 O3           6.3400    -2.6030     0.9960 o          1 9MC      -0.522500
     16 O2           6.3240    -0.2380     1.9750 o          1 9MC      -0.522500
     17 O1           8.4560     0.0090    -1.9360 oh         1 9MC      -0.653000
     18 C16          3.4220     0.0300     1.1200 ca         1 9MC      -0.013500
     19 C10          2.0270     0.0830     0.9570 ca         1 9MC      -0.124000
     20 C11          2.0420    -2.1580     0.0280 ca         1 9MC      -0.124000
     21 C8          -0.8160    -1.5590    -0.8620 ca         1 9MC      -0.091000
     22 C1          -4.5670    -0.7840    -0.2620 c5         1 9MC      -0.037400
     23 C3          -5.1310    -2.2290    -0.3250 c5         1 9MC      -0.070400
     24 C4          -6.5450    -1.9990    -0.9460 c5         1 9MC      -0.079900
     25 C27         -3.8840     1.8770     1.8190 cx         1 9MC      -0.174000
     26 C21         -2.6680     1.8270     2.7170 cx         1 9MC      -0.109400
     27 C22         -3.8880     2.5670     0.4740 ca         1 9MC       0.386300
     28 C23         -2.7320     2.6850    -0.3290 ca         1 9MC      -0.151000
     29 C24         -2.8180     3.3300    -1.5730 ca         1 9MC      -0.072000
     30 C25         -4.0630     3.8420    -1.9660 ca         1 9MC      -0.167000
     31 C26         -5.1650     3.6930    -1.1070 ca         1 9MC       0.338900
     32 H1          -4.4070    -0.8140    -2.4880 hc         1 9MC       0.043200
     33 H2          -4.7490     0.7830    -1.8220 hc         1 9MC       0.043200
     34 H3           3.9690    -3.1210    -0.1160 ha         1 9MC       0.137500
     35 H4           8.4420     0.1120     0.1460 h1         1 9MC       0.037700
     36 H5           8.4530    -1.5340    -0.5350 h1         1 9MC       0.037700
     37 H6           6.1220     0.4660    -0.7360 h1         1 9MC       0.107200
     38 H7           6.1330    -1.1880    -1.4200 h1         1 9MC       0.107200
     39 H8          -0.5330     0.1830     2.0420 ha         1 9MC       0.117000
     40 H9          -3.6980    -0.1380     2.7410 hc         1 9MC       0.091700
     41 H10         -7.0300     0.1410    -1.1920 hc         1 9MC       0.042700
     42 H11         -6.8390    -0.6970    -2.7290 hc         1 9MC       0.042700
     43 H12         -2.6440    -2.0030    -1.8770 ha         1 9MC       0.118000
     44 H13          9.4390     0.0190    -1.9450 ho         1 9MC       0.447000
     45 H14          3.9430     0.8900     1.5390 ha         1 9MC       0.137500
     46 H15          1.5010     0.9890     1.2470 ha         1 9MC       0.122500
     47 H16          1.5240    -3.0190    -0.3850 ha         1 9MC       0.122500
     48 H17         -0.2260    -2.0790    -1.6120 ha         1 9MC       0.115000
     49 H18         -5.0900    -0.2020     0.5030 hc         1 9MC       0.070700
     50 H19         -4.5390    -2.8930    -0.9640 hc         1 9MC       0.043200
     51 H20         -5.1820    -2.6980     0.6640 hc         1 9MC       0.043200
     52 H21         -7.3180    -1.9540    -0.1700 hc         1 9MC       0.042700
     53 H22         -6.8200    -2.8210    -1.6170 hc         1 9MC       0.042700
     54 H23         -4.8340     2.0070     2.3310 hc         1 9MC       0.101700
     55 H24         -2.8240     1.9510     3.7860 hc         1 9MC       0.075700
     56 H25         -1.7420     2.2620     2.3490 hc         1 9MC       0.075700
     57 H26         -1.7820     2.2790     0.0010 ha         1 9MC       0.124000
     58 H27         -1.9440     3.4290    -2.2130 ha         1 9MC       0.118000
     59 H28         -4.1810     4.3490    -2.9190 ha         1 9MC       0.124000
     60 H29         -6.1430     4.0830    -1.3880 h4         1 9MC       0.018100
     61 S1           5.9260    -1.1950     0.9340 sy         1 9MC       1.050500
@<TRIPOS>BOND
     1     1    11 1   
     2     1    22 1   
     3     1    32 1   
     4     1    33 1   
     5     2     5 ar  
     6     2    20 ar  
     7     2    34 1   
     8     3     4 1   
     9     3    17 1   
    10     3    35 1   
    11     3    36 1   
    12     4    37 1   
    13     4    38 1   
    14     4    61 1   
    15     5    18 ar  
    16     5    61 1   
    17     6     7 ar  
    18     6    14 1   
    19     6    21 ar  
    20     7     9 ar  
    21     7    39 1   
    22     8     9 1   
    23     8    25 1   
    24     8    26 1   
    25     8    40 1   
    26     9    12 ar  
    27    10    27 ar  
    28    10    31 ar  
    29    11    24 1   
    30    11    41 1   
    31    11    42 1   
    32    12    13 ar  
    33    12    22 1   
    34    13    21 ar  
    35    13    43 1   
    36    14    19 ar  
    37    14    20 ar  
    38    15    61 2   
    39    16    61 2   
    40    17    44 1   
    41    18    19 ar  
    42    18    45 1   
    43    19    46 1   
    44    20    47 1   
    45    21    48 1   
    46    22    23 1   
    47    22    49 1   
    48    23    24 1   
    49    23    50 1   
    50    23    51 1   
    51    24    52 1   
    52    24    53 1   
    53    25    26 1   
    54    25    27 1   
    55    25    54 1   
    56    26    55 1   
    57    26    56 1   
    58    27    28 ar  
    59    28    29 ar  
    60    28    57 1   
    61    29    30 ar  
    62    29    58 1   
    63    30    31 ar  
    64    30    59 1   
    65    31    60 1   
@<TRIPOS>SUBSTRUCTURE
     1 9MC         1 TEMP              0 ****  ****    0 ROOT
