@<TRIPOS>MOLECULE
9MD
   62    66     1     0     0
SMALL
No Charge or Current Charge


@<TRIPOS>ATOM
      1 C4           2.2800     2.7380     1.8880 ca         1 9MD      -0.092000
      2 C5           1.4680     2.0710     0.9620 ca         1 9MD       0.088400
      3 C6           1.6710     0.7510     0.6610 ca         1 9MD      -0.077200
      4 C8          -0.0500     1.5760    -0.4850 cc         1 9MD       0.467400
      5 C10         -1.2470     1.6580    -1.3350 ca         1 9MD      -0.122900
      6 C13          1.5050    -1.8140    -1.3530 c6         1 9MD       0.170300
      7 C20          3.3110    -1.9320    -3.1500 c6         1 9MD      -0.074400
      8 C21          2.3070    -1.0100    -2.4150 c6         1 9MD      -0.109400
      9 C22         -3.8980    -2.6100     1.0160 c6         1 9MD      -0.089900
     10 C24         -4.9380    -2.2210     3.3170 c6         1 9MD      -0.077400
     11 C26         -2.6030    -1.3310     2.7850 c6         1 9MD      -0.089900
     12 C28         -2.4030     1.2420    -3.4510 ca         1 9MD      -0.109000
     13 C19          2.5900    -3.1830    -3.7100 c6         1 9MD      -0.115400
     14 C18          1.7670    -3.8790    -2.6000 c6         1 9MD       0.160600
     15 O17          0.8570    -2.9340    -1.9970 os         1 9MD      -0.460000
     16 C11          0.3850    -0.9880    -0.6500 c3         1 9MD       0.005300
     17 C12         -0.2590    -1.7430     0.5270 c          1 9MD       0.605100
     18 O14          0.3880    -2.3120     1.3970 o          1 9MD      -0.587100
     19 N15         -1.6390    -1.7300     0.5390 ns         1 9MD      -0.492900
     20 C16         -2.4870    -2.3090     1.5850 c6         1 9MD       0.109700
     21 C23         -4.8380    -3.1820     2.1070 c6         1 9MD      -0.072400
     22 C25         -3.5360    -1.8930     3.8860 c6         1 9MD      -0.072400
     23 N7           0.7140     0.4150    -0.2650 na         1 9MD      -0.167600
     24 C3           2.6920    -0.0020     1.2710 ca         1 9MD      -0.057000
     25 C2           3.5240     0.6480     2.2050 ca         1 9MD       0.080000
     26 C1           3.3180     2.0160     2.5090 ca         1 9MD       0.160000
     27 N9           0.3920     2.6020     0.2670 nd         1 9MD      -0.553100
     28 C27         -1.2610     1.1190    -2.6410 ca         1 9MD      -0.075000
     29 C29         -3.5330     1.9240    -2.9750 ca         1 9MD       0.130000
     30 C31         -3.5180     2.4980    -1.6960 ca         1 9MD      -0.109000
     31 C30         -2.3760     2.3770    -0.8840 ca         1 9MD      -0.075000
     32 Cl34        -4.9600     2.0770    -3.9910 cl         1 9MD      -0.190000
     33 F32          4.1140     2.6420     3.4070 f          1 9MD      -0.163000
     34 Cl33         4.8140    -0.2630     2.9880 cl         1 9MD      -0.169000
     35 H1           2.1130     3.7850     2.1240 ha         1 9MD       0.151000
     36 H2           2.2000    -2.2060    -0.5980 h1         1 9MD       0.060700
     37 H3           3.8050    -1.3830    -3.9630 hc         1 9MD       0.047700
     38 H4           4.1030    -2.2440    -2.4540 hc         1 9MD       0.047700
     39 H6           2.8500    -0.1820    -1.9410 hc         1 9MD       0.054200
     40 H7          -4.3370    -1.6930     0.5970 hc         1 9MD       0.044700
     41 H8          -3.8190    -3.3260     0.1870 hc         1 9MD       0.044700
     42 H9          -5.4390    -1.2920     3.0110 hc         1 9MD       0.040700
     43 H10         -5.5630    -2.6700     4.1000 hc         1 9MD       0.040700
     44 H11         -1.6080    -1.1410     3.2100 hc         1 9MD       0.044700
     45 H12         -2.9840    -0.3590     2.4400 hc         1 9MD       0.044700
     46 H13         -2.4090     0.8170    -4.4520 ha         1 9MD       0.135500
     47 H14          1.9210    -2.8920    -4.5320 hc         1 9MD       0.052200
     48 H15          3.3210    -3.8850    -4.1320 hc         1 9MD       0.052200
     49 H16          1.1890    -4.7120    -3.0260 h1         1 9MD       0.051200
     50 H17          2.4350    -4.2870    -1.8270 h1         1 9MD       0.051200
     51 H18         -0.4070    -0.9280    -1.4010 h1         1 9MD       0.083700
     52 H19         -2.0960    -1.2430    -0.2230 hn         1 9MD       0.310500
     53 H20         -2.0330    -3.2510     1.9280 h1         1 9MD       0.085700
     54 H21         -5.8370    -3.3550     1.6850 hc         1 9MD       0.043950
     55 H22         -4.4660    -4.1610     2.4400 hc         1 9MD       0.043950
     56 H23         -3.6260    -1.1670     4.7050 hc         1 9MD       0.043950
     57 H24         -3.0910    -2.8000     4.3200 hc         1 9MD       0.043950
     58 H25          2.8480    -1.0520     1.0540 ha         1 9MD       0.149000
     59 H26         -0.3830     0.6180    -3.0410 ha         1 9MD       0.131500
     60 H27         -4.3880     3.0390    -1.3340 ha         1 9MD       0.135500
     61 H28         -2.3750     2.8320     0.1050 ha         1 9MD       0.131500
     62 H5           1.6200    -0.5630    -3.1450 hc         1 9MD       0.054200
@<TRIPOS>BOND
     1     1     2 ar  
     2     1    26 ar  
     3     1    35 1   
     4     2     3 ar  
     5     2    27 1   
     6     3    23 1   
     7     3    24 ar  
     8     4     5 1   
     9     4    23 1   
    10     4    27 2   
    11     5    28 ar  
    12     5    31 ar  
    13     6     8 1   
    14     6    15 1   
    15     6    16 1   
    16     6    36 1   
    17     7     8 1   
    18     7    13 1   
    19     7    37 1   
    20     7    38 1   
    21     8    39 1   
    22     8    62 1   
    23     9    20 1   
    24     9    21 1   
    25     9    40 1   
    26     9    41 1   
    27    10    21 1   
    28    10    22 1   
    29    10    42 1   
    30    10    43 1   
    31    11    20 1   
    32    11    22 1   
    33    11    44 1   
    34    11    45 1   
    35    12    28 ar  
    36    12    29 ar  
    37    12    46 1   
    38    13    14 1   
    39    13    47 1   
    40    13    48 1   
    41    14    15 1   
    42    14    49 1   
    43    14    50 1   
    44    16    17 1   
    45    16    23 1   
    46    16    51 1   
    47    17    18 2   
    48    17    19 1   
    49    19    20 1   
    50    19    52 1   
    51    20    53 1   
    52    21    54 1   
    53    21    55 1   
    54    22    56 1   
    55    22    57 1   
    56    24    25 ar  
    57    24    58 1   
    58    25    26 ar  
    59    25    34 1   
    60    26    33 1   
    61    28    59 1   
    62    29    30 ar  
    63    29    32 1   
    64    30    31 ar  
    65    30    60 1   
    66    31    61 1   
@<TRIPOS>SUBSTRUCTURE
     1 9MD         1 TEMP              0 ****  ****    0 ROOT
