@<TRIPOS>MOLECULE
9MD
   62    66     1     0     0
SMALL
bcc


@<TRIPOS>ATOM
      1 C4           2.6210     2.7030     1.8200 ca         1 9MD      -0.110000
      2 C5           1.7200     2.0530     0.9790 ca         1 9MD       0.088400
      3 C6           1.8640     0.6880     0.6840 ca         1 9MD      -0.077200
      4 C8           0.1190     1.5680    -0.3270 cc         1 9MD       0.467400
      5 C10         -1.1100     1.6750    -1.1270 ca         1 9MD      -0.122900
      6 C13          1.4580    -1.7340    -1.3090 c6         1 9MD       0.147100
      7 C20          2.9990    -1.9700    -3.2600 c6         1 9MD      -0.074400
      8 C21          2.0790    -1.0190    -2.5010 c6         1 9MD      -0.109400
      9 C22         -3.4990    -3.0720     1.0400 c6         1 9MD      -0.089900
     10 C24         -5.1220    -2.3940     2.8470 c6         1 9MD      -0.077400
     11 C26         -3.1280    -0.9400     2.3340 c6         1 9MD      -0.089900
     12 C28         -2.2880     1.5350    -3.2280 ca         1 9MD      -0.127000
     13 C19          2.2660    -3.2670    -3.5880 c6         1 9MD      -0.115400
     14 C18          1.6490    -3.8460    -2.3280 c6         1 9MD       0.137400
     15 O17          0.7910    -2.9110    -1.6970 os         1 9MD      -0.413600
     16 C11          0.3730    -0.9050    -0.6300 c3         1 9MD      -0.024000
     17 C12         -0.2620    -1.6310     0.5600 c          1 9MD       0.672100
     18 O14          0.4260    -2.1140     1.4460 o          1 9MD      -0.587100
     19 N15         -1.5990    -1.6170     0.5460 ns         1 9MD      -0.559900
     20 C16         -2.4610    -2.1070     1.6060 c6         1 9MD       0.109700
     21 C23         -4.4510    -3.5600     2.1280 c6         1 9MD      -0.072400
     22 C25         -4.0830    -1.4340     3.4160 c6         1 9MD      -0.072400
     23 N7           0.8260     0.4000    -0.1810 na         1 9MD      -0.138300
     24 C3           2.8890    -0.0720     1.2360 ca         1 9MD      -0.075000
     25 C2           3.7750     0.5840     2.0680 ca         1 9MD      -0.011600
     26 C1           3.6370     1.9490     2.3480 ca         1 9MD       0.124900
     27 N9           0.6240     2.5640     0.3410 nd         1 9MD      -0.553100
     28 C27         -1.1200     1.4110    -2.4940 ca         1 9MD      -0.093000
     29 C29         -3.4510     1.9280    -2.5830 ca         1 9MD       0.038400
     30 C31         -3.4620     2.2050    -1.2240 ca         1 9MD      -0.127000
     31 C30         -2.2860     2.0810    -0.5010 ca         1 9MD      -0.093000
     32 CL34        -4.9150     2.0800    -3.4910 cl         1 9MD      -0.098400
     33 F32          4.5290     2.5180     3.1650 f          1 9MD      -0.127900
     34 CL33         5.0770    -0.2800     2.7960 cl         1 9MD      -0.077400
     35 H1           2.5230     3.7550     2.0530 ha         1 9MD       0.169000
     36 H2           2.2550    -1.9900    -0.5980 h1         1 9MD       0.060700
     37 H3           3.3660    -1.4910    -4.1690 hc         1 9MD       0.047700
     38 H4           3.8770    -2.1950    -2.6460 hc         1 9MD       0.047700
     39 H6           2.6340    -0.1400    -2.1660 hc         1 9MD       0.054200
     40 H7          -4.0750    -2.5650     0.2570 hc         1 9MD       0.044700
     41 H8          -2.9940    -3.9170     0.5650 hc         1 9MD       0.044700
     42 H9          -5.7660    -1.8560     2.1440 hc         1 9MD       0.040700
     43 H10         -5.7700    -2.7660     3.6440 hc         1 9MD       0.040700
     44 H11         -2.3620    -0.2920     2.7670 hc         1 9MD       0.044700
     45 H12         -3.6820    -0.3350     1.6060 hc         1 9MD       0.044700
     46 H13         -2.2860     1.3350    -4.2900 ha         1 9MD       0.153500
     47 H14          1.4830    -3.0800    -4.3280 hc         1 9MD       0.052200
     48 H15          2.9490    -4.0000    -4.0250 hc         1 9MD       0.052200
     49 H16          1.0420    -4.7250    -2.5480 h1         1 9MD       0.051200
     50 H17          2.4430    -4.1540    -1.6330 h1         1 9MD       0.051200
     51 H18         -0.3880    -0.7290    -1.3900 h1         1 9MD       0.083700
     52 H19         -2.0600    -1.1910    -0.2430 hn         1 9MD       0.310500
     53 H20         -1.8270    -2.6470     2.3130 h1         1 9MD       0.085700
     54 H21         -5.2010    -4.2220     1.6890 hc         1 9MD       0.043950
     55 H22         -3.8930    -4.1610     2.8540 hc         1 9MD       0.043950
     56 H23         -4.5710    -0.5820     3.8930 hc         1 9MD       0.043950
     57 H24         -3.5100    -1.9420     4.2000 hc         1 9MD       0.043950
     58 H25          3.0110    -1.1280     1.0550 ha         1 9MD       0.167000
     59 H26         -0.2090     1.1210    -3.0030 ha         1 9MD       0.149500
     60 H27         -4.3730     2.5150    -0.7320 ha         1 9MD       0.153500
     61 H28         -2.2900     2.2950     0.5590 ha         1 9MD       0.149500
     62 H5           1.2840    -0.6650    -3.1660 hc         1 9MD       0.054200
@<TRIPOS>BOND
     1     1     2 ar  
     2     1    26 ar  
     3     1    35 1   
     4     2     3 ar  
     5     2    27 1   
     6     3    23 1   
     7     3    24 ar  
     8     4     5 1   
     9     4    23 1   
    10     4    27 2   
    11     5    28 ar  
    12     5    31 ar  
    13     6     8 1   
    14     6    15 1   
    15     6    16 1   
    16     6    36 1   
    17     7     8 1   
    18     7    13 1   
    19     7    37 1   
    20     7    38 1   
    21     8    39 1   
    22     8    62 1   
    23     9    20 1   
    24     9    21 1   
    25     9    40 1   
    26     9    41 1   
    27    10    21 1   
    28    10    22 1   
    29    10    42 1   
    30    10    43 1   
    31    11    20 1   
    32    11    22 1   
    33    11    44 1   
    34    11    45 1   
    35    12    28 ar  
    36    12    29 ar  
    37    12    46 1   
    38    13    14 1   
    39    13    47 1   
    40    13    48 1   
    41    14    15 1   
    42    14    49 1   
    43    14    50 1   
    44    16    17 1   
    45    16    23 1   
    46    16    51 1   
    47    17    18 2   
    48    17    19 1   
    49    19    20 1   
    50    19    52 1   
    51    20    53 1   
    52    21    54 1   
    53    21    55 1   
    54    22    56 1   
    55    22    57 1   
    56    24    25 ar  
    57    24    58 1   
    58    25    26 ar  
    59    25    34 1   
    60    26    33 1   
    61    28    59 1   
    62    29    30 ar  
    63    29    32 1   
    64    30    31 ar  
    65    30    60 1   
    66    31    61 1   
@<TRIPOS>SUBSTRUCTURE
     1 9MD         1 TEMP              0 ****  ****    0 ROOT
