@<TRIPOS>MOLECULE
9ME
   30    32     1     0     0
SMALL
abcg2


@<TRIPOS>ATOM
      1 C10          0.8850    -1.2700     0.0470 ca         1 9ME       0.289500
      2 C11          1.9170    -2.0990     0.5420 ca         1 9ME      -0.123000
      3 C01         -1.6730    -0.9240    -0.0530 ca         1 9ME      -0.131600
      4 C02         -0.4990    -1.8310    -0.0890 c          1 9ME       0.494200
      5 O01         -0.6370    -3.0260    -0.2480 o          1 9ME      -0.510100
      6 C03         -2.8260    -1.3100    -0.7360 ca         1 9ME      -0.074000
      7 C04         -3.9590    -0.5160    -0.6820 ca         1 9ME      -0.123000
      8 C05         -3.9350     0.6350     0.0760 ca         1 9ME       0.095000
      9 F01         -5.0320     1.4080     0.1480 f          1 9ME      -0.184000
     10 C06         -2.8080     1.0390     0.7850 ca         1 9ME       0.095100
     11 O02         -2.7680     2.1520     1.5360 oh         1 9ME      -0.525100
     12 C07         -1.6710     0.2460     0.7020 ca         1 9ME      -0.067000
     13 C08          3.4300    -0.2800     0.1510 ca         1 9ME      -0.066000
     14 C09          2.3260     0.4660    -0.3350 ca         1 9ME       0.260000
     15 N01          1.0770    -0.0450    -0.3680 nb         1 9ME      -0.635000
     16 C12          3.1830    -1.5940     0.6010 ca         1 9ME      -0.070000
     17 C13          2.5310     1.7870    -0.7960 ca         1 9ME      -0.074000
     18 C14          3.7840     2.3340    -0.7730 ca         1 9ME      -0.105000
     19 C15          4.8840     1.5910    -0.2900 ca         1 9ME      -0.096000
     20 C16          4.7130     0.3120     0.1640 ca         1 9ME      -0.097000
     21 H1           1.7000    -3.1040     0.8750 ha         1 9ME       0.142000
     22 H2          -2.8390    -2.2180    -1.3230 ha         1 9ME       0.136000
     23 H3          -4.8570    -0.7850    -1.2220 ha         1 9ME       0.136000
     24 H4          -3.6230     2.5990     1.5520 ho         1 9ME       0.478000
     25 H5          -0.7930     0.5540     1.2530 ha         1 9ME       0.143000
     26 H6           4.0010    -2.1920     0.9850 ha         1 9ME       0.124000
     27 H7           1.6790     2.3450    -1.1620 ha         1 9ME       0.134000
     28 H8           3.9410     3.3450    -1.1260 ha         1 9ME       0.119000
     29 H9           5.8680     2.0410    -0.2830 ha         1 9ME       0.117000
     30 H10          5.5550    -0.2600     0.5320 ha         1 9ME       0.118000
@<TRIPOS>BOND
     1     1     2 ar  
     2     1     4 1   
     3     1    15 ar  
     4     2    16 ar  
     5     2    21 1   
     6     3     4 1   
     7     3     6 ar  
     8     3    12 ar  
     9     4     5 2   
    10     6     7 ar  
    11     6    22 1   
    12     7     8 ar  
    13     7    23 1   
    14     8     9 1   
    15     8    10 ar  
    16    10    11 1   
    17    10    12 ar  
    18    11    24 1   
    19    12    25 1   
    20    13    14 ar  
    21    13    16 ar  
    22    13    20 ar  
    23    14    15 ar  
    24    14    17 ar  
    25    16    26 1   
    26    17    18 ar  
    27    17    27 1   
    28    18    19 ar  
    29    18    28 1   
    30    19    20 ar  
    31    19    29 1   
    32    20    30 1   
@<TRIPOS>SUBSTRUCTURE
     1 9ME         1 TEMP              0 ****  ****    0 ROOT
