@<TRIPOS>MOLECULE
9ME
   30    32     1     0     0
SMALL
No Charge or Current Charge


@<TRIPOS>ATOM
      1 C10          0.8930    -1.3060     0.0600 ca         1 9ME       0.289500
      2 C11          1.9690    -2.1250     0.4700 ca         1 9ME      -0.123000
      3 C01         -1.7270    -0.9760     0.0190 ca         1 9ME      -0.131600
      4 C02         -0.5210    -1.8970     0.0160 c          1 9ME       0.494200
      5 O01         -0.6970    -3.1140    -0.0180 o          1 9ME      -0.510100
      6 C03         -2.8930    -1.3540    -0.6850 ca         1 9ME      -0.074000
      7 C04         -4.0300    -0.5270    -0.6830 ca         1 9ME      -0.123000
      8 C05         -4.0170     0.6790     0.0320 ca         1 9ME       0.095000
      9 F01         -5.1180     1.4670     0.0300 f          1 9ME      -0.184000
     10 C06         -2.8710     1.0640     0.7560 ca         1 9ME       0.095100
     11 O02         -2.8540     2.2320     1.4700 oh         1 9ME      -0.525100
     12 C07         -1.7340     0.2360     0.7510 ca         1 9ME      -0.067000
     13 C08          3.4720    -0.2740     0.0980 ca         1 9ME      -0.066000
     14 C09          2.3570     0.4970    -0.3150 ca         1 9ME       0.260000
     15 N01          1.1040    -0.0160    -0.3340 nb         1 9ME      -0.635000
     16 C12          3.2730    -1.6060     0.4940 ca         1 9ME      -0.070000
     17 C13          2.5720     1.8300    -0.7130 ca         1 9ME      -0.074000
     18 C14          3.8630     2.3890    -0.7020 ca         1 9ME      -0.105000
     19 C15          4.9600     1.6150    -0.2910 ca         1 9ME      -0.096000
     20 C16          4.7660     0.2830     0.1090 ca         1 9ME      -0.097000
     21 H1           1.7920    -3.1540     0.7710 ha         1 9ME       0.142000
     22 H2          -2.9160    -2.2890    -1.2430 ha         1 9ME       0.136000
     23 H3          -4.9200    -0.8220    -1.2330 ha         1 9ME       0.136000
     24 H4          -3.7250     2.6720     1.3580 ho         1 9ME       0.478000
     25 H5          -0.8670     0.5380     1.3320 ha         1 9ME       0.143000
     26 H6           4.1070    -2.2270     0.8130 ha         1 9ME       0.124000
     27 H7           1.7270     2.4340    -1.0320 ha         1 9ME       0.134000
     28 H8           4.0100     3.4210    -1.0130 ha         1 9ME       0.119000
     29 H9           5.9590     2.0470    -0.2830 ha         1 9ME       0.117000
     30 H10          5.6190    -0.3130     0.4260 ha         1 9ME       0.118000
@<TRIPOS>BOND
     1     1     2 ar  
     2     1     4 1   
     3     1    15 ar  
     4     2    16 ar  
     5     2    21 1   
     6     3     4 1   
     7     3     6 ar  
     8     3    12 ar  
     9     4     5 2   
    10     6     7 ar  
    11     6    22 1   
    12     7     8 ar  
    13     7    23 1   
    14     8     9 1   
    15     8    10 ar  
    16    10    11 1   
    17    10    12 ar  
    18    11    24 1   
    19    12    25 1   
    20    13    14 ar  
    21    13    16 ar  
    22    13    20 ar  
    23    14    15 ar  
    24    14    17 ar  
    25    16    26 1   
    26    17    18 ar  
    27    17    27 1   
    28    18    19 ar  
    29    18    28 1   
    30    19    20 ar  
    31    19    29 1   
    32    20    30 1   
@<TRIPOS>SUBSTRUCTURE
     1 9ME         1 TEMP              0 ****  ****    0 ROOT
