@<TRIPOS>MOLECULE
9MF
   46    47     1     0     0
SMALL
No Charge or Current Charge


@<TRIPOS>ATOM
      1 C13        107.4200   113.9460   106.3800 c3         1 9MF      -0.049800
      2 C15        107.4990   119.6850   103.7850 c3         1 9MF       0.319900
      3 C17        108.2720   121.8390   105.1860 c1         1 9MF      -0.209000
      4 C20        104.6740   117.6340   102.9710 ca         1 9MF      -0.076000
      5 C21        103.7290   116.8330   102.3050 ca         1 9MF      -0.145500
      6 C22        102.6550   116.2800   103.0170 ca         1 9MF       0.164000
      7 C24        103.4620   117.3220   105.0600 ca         1 9MF      -0.076000
      8 C01        111.5420   116.9540   105.7600 c3         1 9MF      -0.049800
      9 C02        110.0360   116.7000   105.7330 ca         1 9MF      -0.024300
     10 C03        109.2020   117.7300   105.2590 ca         1 9MF      -0.181000
     11 C04        107.8090   117.5610   105.1450 ca         1 9MF       0.344000
     12 C05        107.2600   116.3180   105.5140 ca         1 9MF      -0.181000
     13 C06        108.0690   115.2720   105.9930 ca         1 9MF      -0.024300
     14 C07        109.4630   115.4640   106.1240 ca         1 9MF      -0.090000
     15 N08        110.2510   114.3880   106.6190 ns         1 9MF      -0.152000
     16 C09        111.1750   114.3530   107.6450 c          1 9MF       0.632100
     17 O10        111.4370   115.2790   108.4020 o          1 9MF      -0.531000
     18 O11        111.6990   113.0930   107.7390 os         1 9MF      -0.472100
     19 C12        112.6610   112.8400   108.7790 c3         1 9MF       0.171900
     20 C16        107.9220   120.8760   104.5400 c1         1 9MF      -0.189100
     21 C18        105.5650   118.7480   105.1070 c3         1 9MF       0.281100
     22 C19        104.5490   117.8830   104.3560 ca         1 9MF      -0.122300
     23 C23        102.5180   116.5220   104.3910 ca         1 9MF      -0.145500
     24 H132       107.8100   113.1230   105.7690 hc         1 9MF       0.046200
     25 H133       107.6110   113.7060   107.4320 hc         1 9MF       0.046200
     26 H131       106.3320   113.9670   106.2420 hc         1 9MF       0.046200
     27 H151       106.7280   119.9910   103.0640 h1         1 9MF       0.064700
     28 H152       108.3460   119.3170   103.1880 h1         1 9MF       0.064700
     29 H171       108.5800   122.6840   105.7690 ha         1 9MF       0.257000
     30 H201       105.5050   118.0540   102.4090 ha         1 9MF       0.121000
     31 H211       103.8300   116.6410   101.2400 ha         1 9MF       0.133000
     32 H241       103.3480   117.5050   106.1270 ha         1 9MF       0.121000
     33 H013       111.8590   117.3440   106.7340 hc         1 9MF       0.046200
     34 H011       112.1170   116.0450   105.5490 hc         1 9MF       0.046200
     35 H012       111.8340   117.6930   105.0040 hc         1 9MF       0.046200
     36 H031       109.6560   118.6750   104.9820 ha         1 9MF       0.118000
     37 H051       106.1940   116.1490   105.4220 ha         1 9MF       0.118000
     38 H081       110.1040   113.5010   106.1560 hn         1 9MF       0.164000
     39 H121       113.0010   111.7970   108.7410 h1         1 9MF       0.048033
     40 H122       113.5400   113.4880   108.6660 h1         1 9MF       0.048033
     41 H123       112.2230   113.0180   109.7700 h1         1 9MF       0.048033
     42 H181       105.2450   119.7960   105.0170 h1         1 9MF       0.057200
     43 H182       105.5060   118.5150   106.1790 h1         1 9MF       0.057200
     44 H231       101.6830   116.0900   104.9370 ha         1 9MF       0.133000
     45 N14        106.9770   118.6110   104.6650 nh         1 9MF      -0.841400
     46 F25        101.7490   115.5110   102.3760 f          1 9MF      -0.184000
@<TRIPOS>BOND
     1     1    13 1   
     2     1    24 1   
     3     1    25 1   
     4     1    26 1   
     5     2    20 1   
     6     2    27 1   
     7     2    28 1   
     8     2    45 1   
     9     3    20 3   
    10     3    29 1   
    11     4     5 ar  
    12     4    22 ar  
    13     4    30 1   
    14     5     6 ar  
    15     5    31 1   
    16     6    23 ar  
    17     6    46 1   
    18     7    22 ar  
    19     7    23 ar  
    20     7    32 1   
    21     8     9 1   
    22     8    33 1   
    23     8    34 1   
    24     8    35 1   
    25     9    10 ar  
    26     9    14 ar  
    27    10    11 ar  
    28    10    36 1   
    29    11    12 ar  
    30    11    45 1   
    31    12    13 ar  
    32    12    37 1   
    33    13    14 ar  
    34    14    15 1   
    35    15    16 1   
    36    15    38 1   
    37    16    17 2   
    38    16    18 1   
    39    18    19 1   
    40    19    39 1   
    41    19    40 1   
    42    19    41 1   
    43    21    22 1   
    44    21    42 1   
    45    21    43 1   
    46    21    45 1   
    47    23    44 1   
@<TRIPOS>SUBSTRUCTURE
     1 9MF         1 TEMP              0 ****  ****    0 ROOT
