@<TRIPOS>MOLECULE
9MF
   46    47     1     0     0
SMALL
abcg2


@<TRIPOS>ATOM
      1 C13        107.3740   114.2280   106.9400 c3         1 9MF      -0.049800
      2 C15        107.4490   119.8250   104.1670 c3         1 9MF       0.319900
      3 C17        108.5790   121.4850   105.9280 c1         1 9MF      -0.209000
      4 C20        104.9960   117.3560   103.0270 ca         1 9MF      -0.076000
      5 C21        104.1690   116.5580   102.2430 ca         1 9MF      -0.145500
      6 C22        102.9440   116.1780   102.7560 ca         1 9MF       0.164000
      7 C24        103.3610   117.3560   104.7830 ca         1 9MF      -0.076000
      8 C01        111.3980   116.6560   105.0960 c3         1 9MF      -0.049800
      9 C02        109.9220   116.5870   105.3760 ca         1 9MF      -0.024300
     10 C03        109.0970   117.6370   104.9870 ca         1 9MF      -0.181000
     11 C04        107.7090   117.6040   105.2000 ca         1 9MF       0.344000
     12 C05        107.1730   116.4700   105.8370 ca         1 9MF      -0.181000
     13 C06        107.9820   115.4210   106.2540 ca         1 9MF      -0.024300
     14 C07        109.3610   115.4810   106.0220 ca         1 9MF      -0.090000
     15 N08        110.1830   114.3910   106.4290 ns         1 9MF      -0.152000
     16 C09        111.0490   114.4500   107.4660 c          1 9MF       0.632100
     17 O10        111.2750   115.4300   108.1540 o          1 9MF      -0.531000
     18 O11        111.6560   113.2530   107.6400 os         1 9MF      -0.472100
     19 C12        112.6160   113.1790   108.7060 c3         1 9MF       0.171900
     20 C16        108.0790   120.7460   105.1230 c1         1 9MF      -0.189100
     21 C18        105.4850   118.6610   105.1490 c3         1 9MF       0.281100
     22 C19        104.6030   117.7650   104.2990 ca         1 9MF      -0.122300
     23 C23        102.5170   116.5610   104.0150 ca         1 9MF      -0.145500
     24 H132       107.5030   113.3190   106.3460 hc         1 9MF       0.046200
     25 H133       107.8490   114.0450   107.9060 hc         1 9MF       0.046200
     26 H131       106.3070   114.3780   107.1000 hc         1 9MF       0.046200
     27 H151       106.6450   120.3470   103.6460 h1         1 9MF       0.064700
     28 H152       108.1740   119.5450   103.4000 h1         1 9MF       0.064700
     29 H171       109.0340   122.1340   106.6400 ha         1 9MF       0.257000
     30 H201       105.9640   117.6530   102.6470 ha         1 9MF       0.121000
     31 H211       104.4690   116.2330   101.2560 ha         1 9MF       0.133000
     32 H241       103.0470   117.6550   105.7760 ha         1 9MF       0.121000
     33 H013       111.9670   116.7910   106.0190 hc         1 9MF       0.046200
     34 H011       111.7520   115.7310   104.6360 hc         1 9MF       0.046200
     35 H012       111.6250   117.4860   104.4280 hc         1 9MF       0.046200
     36 H031       109.5590   118.4880   104.5100 ha         1 9MF       0.118000
     37 H051       106.1100   116.3910   106.0070 ha         1 9MF       0.118000
     38 H081       110.0330   113.4830   106.0160 hn         1 9MF       0.164000
     39 H121       112.9770   112.1540   108.6990 h1         1 9MF       0.048033
     40 H122       113.4390   113.8700   108.5280 h1         1 9MF       0.048033
     41 H123       112.1460   113.4060   109.6620 h1         1 9MF       0.048033
     42 H181       105.1390   119.6920   105.0560 h1         1 9MF       0.057200
     43 H182       105.3590   118.3960   106.2030 h1         1 9MF       0.057200
     44 H231       101.5530   116.2360   104.3850 ha         1 9MF       0.133000
     45 N14        106.8880   118.6370   104.7850 nh         1 9MF      -0.841400
     46 F25        102.1310   115.3930   101.9990 f          1 9MF      -0.184000
@<TRIPOS>BOND
     1     1    13 1   
     2     1    24 1   
     3     1    25 1   
     4     1    26 1   
     5     2    20 1   
     6     2    27 1   
     7     2    28 1   
     8     2    45 1   
     9     3    20 3   
    10     3    29 1   
    11     4     5 ar  
    12     4    22 ar  
    13     4    30 1   
    14     5     6 ar  
    15     5    31 1   
    16     6    23 ar  
    17     6    46 1   
    18     7    22 ar  
    19     7    23 ar  
    20     7    32 1   
    21     8     9 1   
    22     8    33 1   
    23     8    34 1   
    24     8    35 1   
    25     9    10 ar  
    26     9    14 ar  
    27    10    11 ar  
    28    10    36 1   
    29    11    12 ar  
    30    11    45 1   
    31    12    13 ar  
    32    12    37 1   
    33    13    14 ar  
    34    14    15 1   
    35    15    16 1   
    36    15    38 1   
    37    16    17 2   
    38    16    18 1   
    39    18    19 1   
    40    19    39 1   
    41    19    40 1   
    42    19    41 1   
    43    21    22 1   
    44    21    42 1   
    45    21    43 1   
    46    21    45 1   
    47    23    44 1   
@<TRIPOS>SUBSTRUCTURE
     1 9MF         1 TEMP              0 ****  ****    0 ROOT
