@<TRIPOS>MOLECULE
9MG
   19    20     1     0     0
SMALL
No Charge or Current Charge


@<TRIPOS>ATOM
      1 C1           1.5950     0.0050     2.7880 c3         1 9MG       0.073900
      2 N2           0.4050     0.0710     1.9250 na         1 9MG      -0.286300
      3 C3          -0.9380     0.1430     2.3000 cc         1 9MG       0.403700
      4 N4          -1.7330     0.1890     1.2110 nd         1 9MG      -0.544100
      5 C5          -0.8250     0.1430     0.1470 ca         1 9MG      -0.169600
      6 C6          -1.0780     0.1600    -1.2360 ca         1 9MG       0.458300
      7 O7          -2.3540     0.2290    -1.6880 oh         1 9MG      -0.623300
      8 N8          -0.0720     0.1080    -2.1280 nb         1 9MG      -0.296000
      9 C9           1.1630     0.0410    -1.6010 ca         1 9MG       0.425900
     10 N10          2.1820    -0.0130    -2.4890 nv         1 9MG      -1.051900
     11 N11          1.5100     0.0180    -0.3010 nb         1 9MG      -0.279000
     12 C12          0.4790     0.0710     0.5640 ca         1 9MG       0.166500
     13 H11          2.1480    -0.9210     2.5850 h1         1 9MG       0.055033
     14 H12          2.2450     0.8660     2.5880 h1         1 9MG       0.055033
     15 H13          1.2930     0.0200     3.8430 h1         1 9MG       0.055033
     16 H3          -1.2580     0.1570     3.3360 h5         1 9MG       0.065800
     17 HO7         -2.8950     0.2560    -0.8680 ho         1 9MG       0.499000
     18 H101         1.9640    -0.2290    -3.4590 hn         1 9MG       0.495000
     19 H102         3.1020    -0.2910    -2.1540 hn         1 9MG       0.495000
@<TRIPOS>BOND
     1     1     2 1   
     2     1    13 1   
     3     1    14 1   
     4     1    15 1   
     5     2     3 1   
     6     2    12 1   
     7     3     4 2   
     8     3    16 1   
     9     4     5 1   
    10     5     6 ar  
    11     5    12 ar  
    12     6     7 1   
    13     6     8 ar  
    14     7    17 1   
    15     8     9 ar  
    16     9    10 1   
    17     9    11 ar  
    18    10    18 1   
    19    10    19 1   
    20    11    12 ar  
@<TRIPOS>SUBSTRUCTURE
     1 9MG         1 TEMP              0 ****  ****    0 ROOT
