@<TRIPOS>MOLECULE
9MG
   19    20     1     0     0
SMALL
bcc


@<TRIPOS>ATOM
      1 C1           1.5970     0.0010     2.7760 c3         1 9MG       0.044600
      2 N2           0.4470     0.0690     1.9040 na         1 9MG      -0.257000
      3 C3          -0.8690     0.1520     2.2740 cc         1 9MG       0.403700
      4 N4          -1.6930     0.2000     1.2710 nd         1 9MG      -0.544100
      5 C5          -0.8750     0.1470     0.1700 ca         1 9MG      -0.300200
      6 C6          -1.1010     0.1530    -1.2080 ca         1 9MG       0.786600
      7 O7          -2.3090     0.2190    -1.7510 oh         1 9MG      -0.584300
      8 N8          -0.0890     0.0890    -2.0430 nb         1 9MG      -0.822000
      9 C9           1.1620     0.0170    -1.5480 ca         1 9MG       0.951900
     10 N10          2.1570    -0.0040    -2.4620 nv         1 9MG      -0.941500
     11 N11          1.5100    -0.0030    -0.2620 nb         1 9MG      -0.805000
     12 C12          0.4620     0.0650     0.5450 ca         1 9MG       0.494800
     13 H11          2.1550    -0.9160     2.6010 h1         1 9MG       0.055033
     14 H12          2.2530     0.8540     2.6140 h1         1 9MG       0.055033
     15 H13          1.2560     0.0120     3.8070 h1         1 9MG       0.055033
     16 H3          -1.1500     0.1720     3.3170 h5         1 9MG       0.065800
     17 HO7         -2.9870     0.2610    -1.0640 ho         1 9MG       0.460000
     18 H101         1.9240    -0.2040    -3.4180 hn         1 9MG       0.439800
     19 H102         3.0800    -0.2620    -2.1580 hn         1 9MG       0.439800
@<TRIPOS>BOND
     1     1     2 1   
     2     1    13 1   
     3     1    14 1   
     4     1    15 1   
     5     2     3 1   
     6     2    12 1   
     7     3     4 2   
     8     3    16 1   
     9     4     5 1   
    10     5     6 ar  
    11     5    12 ar  
    12     6     7 1   
    13     6     8 ar  
    14     7    17 1   
    15     8     9 ar  
    16     9    10 1   
    17     9    11 ar  
    18    10    18 1   
    19    10    19 1   
    20    11    12 ar  
@<TRIPOS>SUBSTRUCTURE
     1 9MG         1 TEMP              0 ****  ****    0 ROOT
