@<TRIPOS>MOLECULE
9MH
   39    41     1     0     0
SMALL
No Charge or Current Charge


@<TRIPOS>ATOM
      1 C13          4.4400     2.0390    -0.0940 ca         1 9MH       0.167000
      2 C12          4.9360     1.1460     0.8680 ca         1 9MH      -0.137000
      3 C10          3.3030    -0.5360     0.1640 ca         1 9MH      -0.131600
      4 C7           0.7850    -3.4890    -0.1980 ca         1 9MH      -0.132000
      5 C4          -2.8530    -2.8510    -0.4840 ca         1 9MH      -0.066000
      6 C3          -3.7380    -1.7660    -0.3840 ca         1 9MH      -0.147000
      7 C2          -3.2600    -0.4750    -0.0980 ca         1 9MH      -0.011000
      8 C1          -4.1000     1.9360     0.2310 c          1 9MH       0.601100
      9 F            4.9940     3.2700    -0.2020 f          1 9MH      -0.162000
     10 C11          4.3750    -0.1360     0.9930 ca         1 9MH      -0.069000
     11 C14          3.3820     1.6520    -0.9450 ca         1 9MH       0.085100
     12 O2           2.8990     2.5110    -1.8980 oh         1 9MH      -0.516100
     13 C15          2.8220     0.3660    -0.8160 ca         1 9MH      -0.120000
     14 C9           2.7300    -1.9350     0.3120 c          1 9MH       0.493200
     15 O1           3.4820    -2.8610     0.6160 o          1 9MH      -0.511100
     16 C8           1.2340    -2.1780     0.0770 ca         1 9MH       0.298500
     17 C6          -0.5830    -3.7320    -0.3920 ca         1 9MH      -0.061000
     18 N2           0.3510    -1.1410     0.1770 nb         1 9MH      -0.640000
     19 C16         -0.9700    -1.3620    -0.0080 ca         1 9MH       0.288000
     20 C5          -1.4750    -2.6510    -0.2970 ca         1 9MH      -0.095000
     21 C17         -1.8720    -0.2880     0.0890 ca         1 9MH      -0.118000
     22 O           -3.0320     2.5110     0.4220 o          1 9MH      -0.540100
     23 C           -5.4720     2.6950     0.2300 c3         1 9MH       0.073800
     24 N           -5.5230     4.0570     0.8750 n8         1 9MH      -0.973200
     25 H1           5.7560     1.4490     1.5140 ha         1 9MH       0.137000
     26 H2           1.4940    -4.3090    -0.2650 ha         1 9MH       0.143000
     27 H3          -3.2400    -3.8440    -0.7060 ha         1 9MH       0.120000
     28 H4          -4.8030    -1.9340    -0.5310 ha         1 9MH       0.112000
     29 H5           4.7700    -0.8190     1.7440 ha         1 9MH       0.135000
     30 H6           2.1630     2.0750    -2.3800 ho         1 9MH       0.470000
     31 H7           2.0220     0.0630    -1.4870 ha         1 9MH       0.128000
     32 H8          -0.9390    -4.7370    -0.6100 ha         1 9MH       0.122000
     33 H9          -1.4610     0.6890     0.3140 ha         1 9MH       0.167000
     34 H10         -5.1720     0.2620    -0.1530 hn         1 9MH       0.148000
     35 H11         -5.7860     2.7900    -0.8190 h1         1 9MH       0.043700
     36 H12         -6.2070     2.0520     0.7340 h1         1 9MH       0.043700
     37 H13         -4.8640     4.6860     0.3960 hn         1 9MH       0.406000
     38 H14         -6.4410     4.4880     0.7010 hn         1 9MH       0.406000
     39 N1          -4.2190     0.5720    -0.0110 ns         1 9MH      -0.155000
@<TRIPOS>BOND
     1     1     2 ar  
     2     1     9 1   
     3     1    11 ar  
     4     2    10 ar  
     5     2    25 1   
     6     3    10 ar  
     7     3    13 ar  
     8     3    14 1   
     9     4    16 ar  
    10     4    17 ar  
    11     4    26 1   
    12     5     6 ar  
    13     5    20 ar  
    14     5    27 1   
    15     6     7 ar  
    16     6    28 1   
    17     7    21 ar  
    18     7    39 1   
    19     8    22 2   
    20     8    23 1   
    21     8    39 1   
    22    10    29 1   
    23    11    12 1   
    24    11    13 ar  
    25    12    30 1   
    26    13    31 1   
    27    14    15 2   
    28    14    16 1   
    29    16    18 ar  
    30    17    20 ar  
    31    17    32 1   
    32    18    19 ar  
    33    19    20 ar  
    34    19    21 ar  
    35    21    33 1   
    36    23    24 1   
    37    23    35 1   
    38    23    36 1   
    39    24    37 1   
    40    24    38 1   
    41    34    39 1   
@<TRIPOS>SUBSTRUCTURE
     1 9MH         1 TEMP              0 ****  ****    0 ROOT
