@<TRIPOS>MOLECULE
9MH
   39    41     1     0     0
SMALL
bcc


@<TRIPOS>ATOM
      1 C13          4.3560     1.9820    -0.1240 ca         1 9MH       0.131900
      2 C12          4.8650     1.1160     0.8190 ca         1 9MH      -0.155000
      3 C10          3.1710    -0.4840     0.2180 ca         1 9MH      -0.131600
      4 C7           0.7880    -3.4410    -0.2570 ca         1 9MH      -0.215300
      5 C4          -2.8580    -2.8080    -0.5450 ca         1 9MH      -0.084000
      6 C3          -3.7040    -1.7500    -0.4050 ca         1 9MH      -0.165000
      7 C2          -3.2220    -0.4570    -0.0580 ca         1 9MH       0.081600
      8 C1          -4.0390     1.8630     0.3160 c          1 9MH       0.668100
      9 F            4.9190     3.1820    -0.2990 f          1 9MH      -0.126900
     10 C11          4.2790    -0.1290     0.9830 ca         1 9MH      -0.087000
     11 C14          3.2600     1.6490    -0.9180 ca         1 9MH       0.085100
     12 O2           2.8440     2.5530    -1.8190 oh         1 9MH      -0.477100
     13 C15          2.6670     0.4100    -0.7280 ca         1 9MH      -0.138000
     14 C9           2.6150    -1.8510     0.3880 c          1 9MH       0.493200
     15 O1           3.3130    -2.7590     0.7880 o          1 9MH      -0.511100
     16 C8           1.1720    -2.1260     0.0840 ca         1 9MH       0.363800
     17 C6          -0.5370    -3.6900    -0.4780 ca         1 9MH      -0.079000
     18 N2           0.3300    -1.1320     0.2110 nb         1 9MH      -0.640000
     19 C16         -0.9860    -1.3610     0.0080 ca         1 9MH       0.418600
     20 C5          -1.4700    -2.6450    -0.3440 ca         1 9MH      -0.160300
     21 C17         -1.8740    -0.2720     0.1500 ca         1 9MH      -0.201300
     22 O           -2.9700     2.3910     0.5430 o          1 9MH      -0.540100
     23 C           -5.3540     2.6230     0.2860 c3         1 9MH       0.073800
     24 N           -5.1650     4.0130     0.6190 n8         1 9MH      -0.862800
     25 H1           5.7170     1.4140     1.4150 ha         1 9MH       0.155000
     26 H2           1.5280    -4.2230    -0.3490 ha         1 9MH       0.161000
     27 H3          -3.2480    -3.7810    -0.8140 ha         1 9MH       0.138000
     28 H4          -4.7670    -1.8920    -0.5610 ha         1 9MH       0.130000
     29 H5           4.6840    -0.8130     1.7160 ha         1 9MH       0.153000
     30 H6           2.0730     2.2200    -2.2940 ho         1 9MH       0.431000
     31 H7           1.8160     0.1440    -1.3400 ha         1 9MH       0.146000
     32 H8          -0.8770    -4.6800    -0.7540 ha         1 9MH       0.140000
     33 H9          -1.4590     0.6850     0.4180 ha         1 9MH       0.185000
     34 H10         -5.1340     0.2270    -0.1380 hn         1 9MH       0.314500
     35 H11         -5.8190     2.4400    -0.6940 h1         1 9MH       0.043700
     36 H12         -6.0230     2.1670     1.0200 h1         1 9MH       0.043700
     37 H13         -4.7050     4.4930    -0.1440 hn         1 9MH       0.350800
     38 H14         -6.0700     4.4510     0.7200 hn         1 9MH       0.350800
     39 N1          -4.1900     0.5360     0.0400 ns         1 9MH      -0.481100
@<TRIPOS>BOND
     1     1     2 ar  
     2     1     9 1   
     3     1    11 ar  
     4     2    10 ar  
     5     2    25 1   
     6     3    10 ar  
     7     3    13 ar  
     8     3    14 1   
     9     4    16 ar  
    10     4    17 ar  
    11     4    26 1   
    12     5     6 ar  
    13     5    20 ar  
    14     5    27 1   
    15     6     7 ar  
    16     6    28 1   
    17     7    21 ar  
    18     7    39 1   
    19     8    22 2   
    20     8    23 1   
    21     8    39 1   
    22    10    29 1   
    23    11    12 1   
    24    11    13 ar  
    25    12    30 1   
    26    13    31 1   
    27    14    15 2   
    28    14    16 1   
    29    16    18 ar  
    30    17    20 ar  
    31    17    32 1   
    32    18    19 ar  
    33    19    20 ar  
    34    19    21 ar  
    35    21    33 1   
    36    23    24 1   
    37    23    35 1   
    38    23    36 1   
    39    24    37 1   
    40    24    38 1   
    41    34    39 1   
@<TRIPOS>SUBSTRUCTURE
     1 9MH         1 TEMP              0 ****  ****    0 ROOT
