@<TRIPOS>MOLECULE
9MI
   26    26     1     0     0
SMALL
abcg2


@<TRIPOS>ATOM
      1 C1           4.7760    -2.1730   -12.6080 c3         1 9MI      -0.019500
      2 C2           4.9130    -0.6800   -12.7410 c2         1 9MI      -0.107400
      3 C3           4.4570     0.1630   -11.5750 c6         1 9MI      -0.039200
      4 C4           5.2270     1.4730   -11.4690 c6         1 9MI      -0.039200
      5 C7           5.4120     1.4130   -13.9030 ce         1 9MI      -0.187000
      6 C9           5.3900    -2.9630   -13.7560 c3         1 9MI      -0.085600
      7 C            3.3040    -2.5600   -12.4260 c3         1 9MI      -0.085600
      8 C8           5.3450    -0.0450   -13.8390 ce         1 9MI      -0.186000
      9 C5           5.3510     2.1670   -12.7980 c2         1 9MI      -0.113400
     10 H1           5.3000    -2.4590   -11.6870 hc         1 9MI       0.049700
     11 H2           3.3870     0.3780   -11.6940 hc         1 9MI       0.046200
     12 H3           4.5440    -0.3960   -10.6400 hc         1 9MI       0.046200
     13 H4           6.2370     1.2860   -11.0800 hc         1 9MI       0.046700
     14 H5           4.7450     2.1270   -10.7380 hc         1 9MI       0.046700
     15 H6           6.3250     3.9760   -12.1870 hc         1 9MI       0.039700
     16 H7           5.6280     4.0480   -13.8100 hc         1 9MI       0.039700
     17 H8           4.5920     4.1310   -12.3800 hc         1 9MI       0.039700
     18 H9           5.5490     1.8770   -14.8740 ha         1 9MI       0.174000
     19 H10          5.3100    -4.0330   -13.5620 hc         1 9MI       0.034367
     20 H11          4.8780    -2.7630   -14.6990 hc         1 9MI       0.034367
     21 H12          6.4470    -2.7270   -13.8920 hc         1 9MI       0.034367
     22 H13          2.8480    -2.0530   -11.5750 hc         1 9MI       0.034367
     23 H14          2.7270    -2.3050   -13.3170 hc         1 9MI       0.034367
     24 H15          3.2070    -3.6340   -12.2590 hc         1 9MI       0.034367
     25 H16          5.6460    -0.5980   -14.7210 ha         1 9MI       0.177000
     26 C6           5.4800     3.6550   -12.8040 c3         1 9MI      -0.048900
@<TRIPOS>BOND
     1     1     2 1   
     2     1     6 1   
     3     1     7 1   
     4     1    10 1   
     5     2     3 1   
     6     2     8 2   
     7     3     4 1   
     8     3    11 1   
     9     3    12 1   
    10     4     9 1   
    11     4    13 1   
    12     4    14 1   
    13     5     8 1   
    14     5     9 2   
    15     5    18 1   
    16     6    19 1   
    17     6    20 1   
    18     6    21 1   
    19     7    22 1   
    20     7    23 1   
    21     7    24 1   
    22     8    25 1   
    23     9    26 1   
    24    15    26 1   
    25    16    26 1   
    26    17    26 1   
@<TRIPOS>SUBSTRUCTURE
     1 9MI         1 TEMP              0 ****  ****    0 ROOT
