@<TRIPOS>MOLECULE
9MI
   26    26     1     0     0
SMALL
No Charge or Current Charge


@<TRIPOS>ATOM
      1 C1           4.4970    -2.1640   -12.5490 c3         1 9MI      -0.019500
      2 C2           4.7000    -0.6570   -12.6770 c2         1 9MI      -0.107400
      3 C3           4.8490     0.1180   -11.3650 c6         1 9MI      -0.039200
      4 C4           5.6500     1.4370   -11.5380 c6         1 9MI      -0.039200
      5 C7           4.8640     1.4720   -13.9010 ce         1 9MI      -0.187000
      6 C9           5.6770    -2.9410   -13.1710 c3         1 9MI      -0.085600
      7 C            3.1420    -2.6080   -13.1420 c3         1 9MI      -0.085600
      8 C8           4.7080     0.0160   -13.8500 ce         1 9MI      -0.186000
      9 C5           5.2960     2.1710   -12.8290 c2         1 9MI      -0.113400
     10 H1           4.4700    -2.4360   -11.4860 hc         1 9MI       0.049700
     11 H2           3.8460     0.3470   -10.9780 hc         1 9MI       0.046200
     12 H3           5.3420    -0.4980   -10.6010 hc         1 9MI       0.046200
     13 H4           6.7250     1.2120   -11.5470 hc         1 9MI       0.046700
     14 H5           5.4770     2.0840   -10.6660 hc         1 9MI       0.046700
     15 H6           6.5650     3.9120   -12.5980 hc         1 9MI       0.039700
     16 H7           5.2690     4.1230   -13.7840 hc         1 9MI       0.039700
     17 H8           4.8950     4.1550   -12.0550 hc         1 9MI       0.039700
     18 H9           4.6470     1.9700   -14.8480 ha         1 9MI       0.174000
     19 H10          5.5550    -4.0200   -13.0160 hc         1 9MI       0.034367
     20 H11          5.7470    -2.7550   -14.2490 hc         1 9MI       0.034367
     21 H12          6.6240    -2.6370   -12.7080 hc         1 9MI       0.034367
     22 H13          2.3180    -2.0580   -12.6700 hc         1 9MI       0.034367
     23 H14          3.1030    -2.4250   -14.2220 hc         1 9MI       0.034367
     24 H15          2.9770    -3.6790   -12.9700 hc         1 9MI       0.034367
     25 H16          4.5640    -0.5050   -14.7990 ha         1 9MI       0.177000
     26 C6           5.5180     3.6710   -12.8170 c3         1 9MI      -0.048900
@<TRIPOS>BOND
     1     1     2 1   
     2     1     6 1   
     3     1     7 1   
     4     1    10 1   
     5     2     3 1   
     6     2     8 2   
     7     3     4 1   
     8     3    11 1   
     9     3    12 1   
    10     4     9 1   
    11     4    13 1   
    12     4    14 1   
    13     5     8 1   
    14     5     9 2   
    15     5    18 1   
    16     6    19 1   
    17     6    20 1   
    18     6    21 1   
    19     7    22 1   
    20     7    23 1   
    21     7    24 1   
    22     8    25 1   
    23     9    26 1   
    24    15    26 1   
    25    16    26 1   
    26    17    26 1   
@<TRIPOS>SUBSTRUCTURE
     1 9MI         1 TEMP              0 ****  ****    0 ROOT
