@<TRIPOS>MOLECULE
9MJ
   21    22     1     0     0
SMALL
bcc


@<TRIPOS>ATOM
      1 C            2.7240    -0.8010    -0.0100 c          1 9MJ       0.716900
      2 N            2.5590    -2.1220    -0.0070 nt         1 9MJ      -0.648000
      3 O            3.7900    -0.2110    -0.0150 o          1 9MJ      -0.633100
      4 C1          -0.5200     0.3130    -0.0030 cc         1 9MJ       0.575000
      5 N1           1.5220    -0.0780    -0.0050 n          1 9MJ      -0.116500
      6 O1          -2.4570    -1.0960     0.0090 os         1 9MJ      -0.307800
      7 C2           1.3420     1.2790    -0.0110 cd         1 9MJ       0.763400
      8 N2           0.3060    -0.6950    -0.0010 nd         1 9MJ      -0.551800
      9 C3          -1.9540     0.1550     0.0000 cc         1 9MJ       0.189700
     10 N3           0.0520     1.5420    -0.0100 nc         1 9MJ      -0.784000
     11 C4          -3.7990    -0.9890     0.0100 cc         1 9MJ       0.242600
     12 N4           2.3200     2.1790    -0.0160 nv         1 9MJ      -0.971500
     13 C5          -4.1700     0.3140     0.0020 cd         1 9MJ      -0.280300
     14 C6          -2.9620     1.0670    -0.0050 cd         1 9MJ      -0.210300
     15 HN           3.3700    -2.7160    -0.0130 hn         1 9MJ       0.344000
     16 HNA          1.6460    -2.5460    -0.0060 hn         1 9MJ       0.344000
     17 H4          -4.3560    -1.9120     0.0190 h4         1 9MJ       0.053100
     18 HN4          3.2850     1.9000    -0.0210 hn         1 9MJ       0.469800
     19 HN4A         2.0830     3.1550    -0.0210 hn         1 9MJ       0.469800
     20 H5          -5.1790     0.6920     0.0000 ha         1 9MJ       0.161000
     21 H6          -2.8540     2.1390    -0.0130 ha         1 9MJ       0.174000
@<TRIPOS>BOND
     1     1     2 1   
     2     1     3 2   
     3     1     5 1   
     4     2    15 1   
     5     2    16 1   
     6     4     8 2   
     7     4     9 1   
     8     4    10 1   
     9     5     7 1   
    10     5     8 1   
    11     6     9 1   
    12     6    11 1   
    13     7    10 2   
    14     7    12 1   
    15     9    14 2   
    16    11    13 2   
    17    11    17 1   
    18    12    18 1   
    19    12    19 1   
    20    13    14 1   
    21    13    20 1   
    22    14    21 1   
@<TRIPOS>SUBSTRUCTURE
     1 9MJ         1 TEMP              0 ****  ****    0 ROOT
