@<TRIPOS>MOLECULE
9MJ
   21    22     1     0     0
SMALL
No Charge or Current Charge


@<TRIPOS>ATOM
      1 C            2.8390    -0.7710     0.0020 c          1 9MJ       0.649900
      2 N            2.8740    -2.1170    -0.0100 nt         1 9MJ      -0.581000
      3 O            3.8770    -0.1280    -0.0210 o          1 9MJ      -0.633100
      4 C1          -0.5500     0.2010     0.0250 cc         1 9MJ       0.575000
      5 N1           1.5490    -0.2100     0.0310 n          1 9MJ      -0.116500
      6 O1          -2.6360    -1.1560    -0.0220 os         1 9MJ      -0.219000
      7 C2           1.2740     1.1310     0.0660 cd         1 9MJ       0.763400
      8 N2           0.2950    -0.8280     0.0100 nd         1 9MJ      -0.551800
      9 C3          -1.9930     0.0660     0.0100 cc         1 9MJ       0.080000
     10 N3           0.0250     1.4490     0.0550 nc         1 9MJ      -0.784000
     11 C4          -3.9870    -0.8830    -0.0280 cc         1 9MJ       0.132900
     12 N4           2.1390     2.1420     0.1210 nv         1 9MJ      -1.081900
     13 C5          -4.1820     0.4730    -0.0010 cd         1 9MJ      -0.197000
     14 C6          -2.9100     1.0840     0.0230 cd         1 9MJ      -0.127000
     15 HN           3.7610    -2.5940    -0.0340 hn         1 9MJ       0.344000
     16 HNA          2.0040    -2.6280     0.0040 hn         1 9MJ       0.344000
     17 H4          -4.6750    -1.7180    -0.0510 h4         1 9MJ       0.053100
     18 HN4          3.0960     1.9040    -0.1250 hn         1 9MJ       0.525000
     19 HN4A         1.7860     3.0270    -0.2210 hn         1 9MJ       0.525000
     20 H5          -5.1430     0.9780     0.0010 ha         1 9MJ       0.143000
     21 H6          -2.6940     2.1480     0.0470 ha         1 9MJ       0.156000
@<TRIPOS>BOND
     1     1     2 1   
     2     1     3 2   
     3     1     5 1   
     4     2    15 1   
     5     2    16 1   
     6     4     8 2   
     7     4     9 1   
     8     4    10 1   
     9     5     7 1   
    10     5     8 1   
    11     6     9 1   
    12     6    11 1   
    13     7    10 2   
    14     7    12 1   
    15     9    14 2   
    16    11    13 2   
    17    11    17 1   
    18    12    18 1   
    19    12    19 1   
    20    13    14 1   
    21    13    20 1   
    22    14    21 1   
@<TRIPOS>SUBSTRUCTURE
     1 9MJ         1 TEMP              0 ****  ****    0 ROOT
