@<TRIPOS>MOLECULE
9MK
   33    35     1     0     0
SMALL
abcg2


@<TRIPOS>ATOM
      1 C1          -4.6630     1.0760     0.2380 ca         1 9MK      -0.059300
      2 C2          -3.6310     1.8570     0.8210 ca         1 9MK      -0.104000
      3 C9           4.3200    -0.2980     0.8410 ca         1 9MK      -0.136000
      4 C8           3.2610    -1.1920     0.8180 ca         1 9MK      -0.069000
      5 C7           2.1030    -0.8810     0.1100 ca         1 9MK      -0.130600
      6 C4          -2.0010     0.1500     0.3380 ca         1 9MK       0.255000
      7 C3          -2.3410     1.4160     0.8720 ca         1 9MK      -0.075000
      8 C16         -4.3460    -0.1520    -0.2830 ca         1 9MK      -0.101000
      9 C5          -0.4080    -1.4350    -0.0880 ca         1 9MK       0.286500
     10 C10          4.2220     0.8800     0.1340 ca         1 9MK       0.165000
     11 C15         -3.0220    -0.6420    -0.2440 ca         1 9MK      -0.061000
     12 C14         -2.6510    -1.9020    -0.7610 ca         1 9MK      -0.071000
     13 C13         -1.3510    -2.3100    -0.6740 ca         1 9MK      -0.123000
     14 C12          2.0230     0.3200    -0.5960 ca         1 9MK      -0.123000
     15 O            1.2490    -3.0710     0.1680 o          1 9MK      -0.509100
     16 C11          3.0870     1.2090    -0.6030 ca         1 9MK       0.083100
     17 F            5.2400     1.7480     0.1420 f          1 9MK      -0.162000
     18 O1           3.0920     2.3730    -1.2730 oh         1 9MK      -0.516100
     19 N           -0.7170    -0.2580     0.3940 nb         1 9MK      -0.637000
     20 C           -6.0620     1.6080     0.2100 c3         1 9MK      -0.051800
     21 H1          -3.8800     2.8290     1.2310 ha         1 9MK       0.118000
     22 H3           3.3360    -2.1210     1.3650 ha         1 9MK       0.136000
     23 H4          -1.5590     2.0190     1.3140 ha         1 9MK       0.133000
     24 H5          -5.1160    -0.7670    -0.7340 ha         1 9MK       0.117000
     25 H6          -3.4000    -2.5360    -1.2190 ha         1 9MK       0.124000
     26 H7          -1.0410    -3.2720    -1.0560 ha         1 9MK       0.142000
     27 H8           1.1350     0.5660    -1.1640 ha         1 9MK       0.126000
     28 H9           2.2660     2.4820    -1.7580 ho         1 9MK       0.469000
     29 H10         -6.4450     1.7540     1.2220 hc         1 9MK       0.047033
     30 H11         -6.1020     2.5780    -0.2880 hc         1 9MK       0.047033
     31 H12         -6.7390     0.9330    -0.3110 hc         1 9MK       0.047033
     32 C6           1.0120    -1.8860     0.0650 c          1 9MK       0.494200
     33 H2           5.2190    -0.5120     1.4040 ha         1 9MK       0.138000
@<TRIPOS>BOND
     1     1     2 ar  
     2     1     8 ar  
     3     1    20 1   
     4     2     7 ar  
     5     2    21 1   
     6     3     4 ar  
     7     3    10 ar  
     8     3    33 1   
     9     4     5 ar  
    10     4    22 1   
    11     5    14 ar  
    12     5    32 1   
    13     6     7 ar  
    14     6    11 ar  
    15     6    19 ar  
    16     7    23 1   
    17     8    11 ar  
    18     8    24 1   
    19     9    13 ar  
    20     9    19 ar  
    21     9    32 1   
    22    10    16 ar  
    23    10    17 1   
    24    11    12 ar  
    25    12    13 ar  
    26    12    25 1   
    27    13    26 1   
    28    14    16 ar  
    29    14    27 1   
    30    15    32 2   
    31    16    18 1   
    32    18    28 1   
    33    20    29 1   
    34    20    30 1   
    35    20    31 1   
@<TRIPOS>SUBSTRUCTURE
     1 9MK         1 TEMP              0 ****  ****    0 ROOT
