@<TRIPOS>MOLECULE
9MK
   33    35     1     0     0
SMALL
No Charge or Current Charge


@<TRIPOS>ATOM
      1 C1          -4.7120     1.1120     0.2380 ca         1 9MK      -0.059300
      2 C2          -3.6910     1.9450     0.7290 ca         1 9MK      -0.104000
      3 C9           4.4130    -0.3240     0.8590 ca         1 9MK      -0.136000
      4 C8           3.3450    -1.2350     0.7830 ca         1 9MK      -0.069000
      5 C7           2.1810    -0.9180     0.0480 ca         1 9MK      -0.130600
      6 C4          -2.0210     0.2040     0.3070 ca         1 9MK       0.255000
      7 C3          -2.3600     1.4920     0.7610 ca         1 9MK      -0.075000
      8 C16         -4.3890    -0.1790    -0.2160 ca         1 9MK      -0.101000
      9 C5          -0.4030    -1.4540    -0.0990 ca         1 9MK       0.286500
     10 C10          4.3330     0.9090     0.1930 ca         1 9MK       0.165000
     11 C15         -3.0550    -0.6310    -0.1830 ca         1 9MK      -0.061000
     12 C14         -2.7340    -1.9210    -0.6360 ca         1 9MK      -0.071000
     13 C13         -1.3940    -2.3340    -0.5880 ca         1 9MK      -0.123000
     14 C12          2.1180     0.3200    -0.6350 ca         1 9MK      -0.123000
     15 O            1.3250    -3.1320    -0.0420 o          1 9MK      -0.509100
     16 C11          3.1850     1.2360    -0.5610 ca         1 9MK       0.083100
     17 F            5.3710     1.7740     0.2770 f          1 9MK      -0.162000
     18 O1           3.1010     2.4320    -1.2270 oh         1 9MK      -0.516100
     19 N           -0.7320    -0.2060     0.3490 nb         1 9MK      -0.637000
     20 C           -6.1520     1.5990     0.2060 c3         1 9MK      -0.051800
     21 H1          -3.9260     2.9440     1.0880 ha         1 9MK       0.118000
     22 H3           3.4210    -2.1880     1.3030 ha         1 9MK       0.136000
     23 H4          -1.5800     2.1450     1.1420 ha         1 9MK       0.133000
     24 H5          -5.1740    -0.8310    -0.5930 ha         1 9MK       0.117000
     25 H6          -3.5040    -2.5900    -1.0150 ha         1 9MK       0.124000
     26 H7          -1.1230    -3.3290    -0.9310 ha         1 9MK       0.142000
     27 H8           1.2460     0.5660    -1.2350 ha         1 9MK       0.126000
     28 H9           2.2330     2.4850    -1.6810 ho         1 9MK       0.469000
     29 H10         -6.6760     1.3290     1.1310 hc         1 9MK       0.047033
     30 H11         -6.2050     2.6880     0.0960 hc         1 9MK       0.047033
     31 H12         -6.7050     1.1570    -0.6320 hc         1 9MK       0.047033
     32 C6           1.0520    -1.9320    -0.0300 c          1 9MK       0.494200
     33 H2           5.3020    -0.5710     1.4320 ha         1 9MK       0.138000
@<TRIPOS>BOND
     1     1     2 ar  
     2     1     8 ar  
     3     1    20 1   
     4     2     7 ar  
     5     2    21 1   
     6     3     4 ar  
     7     3    10 ar  
     8     3    33 1   
     9     4     5 ar  
    10     4    22 1   
    11     5    14 ar  
    12     5    32 1   
    13     6     7 ar  
    14     6    11 ar  
    15     6    19 ar  
    16     7    23 1   
    17     8    11 ar  
    18     8    24 1   
    19     9    13 ar  
    20     9    19 ar  
    21     9    32 1   
    22    10    16 ar  
    23    10    17 1   
    24    11    12 ar  
    25    12    13 ar  
    26    12    25 1   
    27    13    26 1   
    28    14    16 ar  
    29    14    27 1   
    30    15    32 2   
    31    16    18 1   
    32    18    28 1   
    33    20    29 1   
    34    20    30 1   
    35    20    31 1   
@<TRIPOS>SUBSTRUCTURE
     1 9MK         1 TEMP              0 ****  ****    0 ROOT
