@<TRIPOS>MOLECULE
9ML
   63    66     1     0     0
SMALL
No Charge or Current Charge


@<TRIPOS>ATOM
      1 C12          3.0570     0.4970    -0.4150 ca         1 9ML      -0.014000
      2 C13         -3.1800    -0.1140     2.0550 cx         1 9ML      -0.069400
      3 C14         -3.3160     1.3910     1.9090 cx         1 9ML      -0.170000
      4 C15         -1.4930     3.4420    -1.3470 ca         1 9ML      -0.164000
      5 C17         -1.4550     2.8680     0.9900 ca         1 9ML      -0.157000
      6 C18         -2.6450     2.1400     0.7880 ca         1 9ML       0.388300
      7 C19         -2.6860     2.7070    -1.4600 ca         1 9ML       0.343900
      8 C20          6.3790    -0.3610     0.7110 c3         1 9ML      -0.308400
      9 N1          -3.2590     2.0700    -0.4150 nb         1 9ML      -0.676000
     10 C5          -1.0220    -0.6940     0.8330 ca         1 9ML      -0.086000
     11 C6          -0.2630    -1.3970    -0.1330 cp         1 9ML      -0.061000
     12 C7           3.9560    -0.5460    -0.7170 ca         1 9ML      -0.272500
     13 C9           2.1120    -2.1380    -0.6360 ca         1 9ML      -0.125500
     14 O1           5.8630     1.2170    -1.3270 o          1 9ML      -0.523500
     15 S1           5.7110    -0.1940    -0.9480 sy         1 9ML       1.050500
     16 O2           6.3050    -1.2670    -1.7560 o          1 9ML      -0.523500
     17 C21          7.8850    -0.0980     0.7370 c3         1 9ML       0.191600
     18 O3           8.3370    -0.2500     2.0830 oh         1 9ML      -0.653000
     19 C8           3.4780    -1.8670    -0.8240 ca         1 9ML      -0.014000
     20 C10          1.1920    -1.1050    -0.3320 cp         1 9ML       0.037000
     21 C11          1.6940     0.2160    -0.2270 ca         1 9ML      -0.125500
     22 C4          -2.4040    -0.9280     1.0280 ca         1 9ML      -0.040300
     23 C3          -3.0470    -1.9060     0.2170 ca         1 9ML      -0.046300
     24 C24         -4.5450    -2.2170     0.3120 c3         1 9ML      -0.033100
     25 C25         -5.4230    -1.1270    -0.3430 c3         1 9ML      -0.082400
     26 C26         -6.9340    -1.4390    -0.2700 c3         1 9ML      -0.071400
     27 C27         -7.8070    -0.3450    -0.9200 c3         1 9ML      -0.076400
     28 C28         -9.3150    -0.6530    -0.8470 c3         1 9ML      -0.088100
     29 C23         -2.2930    -2.6180    -0.7380 ca         1 9ML      -0.113000
     30 C1          -0.9250    -2.3710    -0.9100 ca         1 9ML      -0.087000
     31 C22         -2.5620     0.8080     3.0870 cx         1 9ML      -0.109400
     32 C16         -0.8620     3.5310    -0.0970 ca         1 9ML      -0.070000
     33 H1           3.4070     1.5240    -0.3270 ha         1 9ML       0.137000
     34 H2          -4.0520    -0.6410     2.4280 hc         1 9ML       0.088700
     35 H3          -4.2960     1.8080     2.1250 hc         1 9ML       0.100700
     36 H5          -0.9970     2.9180     1.9730 ha         1 9ML       0.117000
     37 H6          -3.1990     2.6280    -2.4180 h4         1 9ML       0.018100
     38 H7           5.8500     0.3570     1.3450 h1         1 9ML       0.107200
     39 H8           6.1590    -1.3800     1.0450 h1         1 9ML       0.107200
     40 H9          -0.5090     0.0480     1.4330 ha         1 9ML       0.111000
     41 H10          1.7650    -3.1650    -0.7120 ha         1 9ML       0.121500
     42 H11          8.4000    -0.8100     0.0770 h1         1 9ML       0.037700
     43 H12          8.0930     0.9190     0.3750 h1         1 9ML       0.037700
     44 H13          9.3050    -0.0780     2.0810 ho         1 9ML       0.447000
     45 H14          4.1580    -2.6880    -1.0500 ha         1 9ML       0.137000
     46 H15          1.0160     1.0380    -0.0110 ha         1 9ML       0.121500
     47 H16         -4.7600    -3.1730    -0.1820 hc         1 9ML       0.045200
     48 H17         -4.8490    -2.3670     1.3540 hc         1 9ML       0.045200
     49 H18         -5.2350    -0.1630     0.1420 hc         1 9ML       0.053200
     50 H19         -5.1270    -1.0150    -1.3930 hc         1 9ML       0.053200
     51 H20         -7.1290    -2.3990    -0.7650 hc         1 9ML       0.033700
     52 H21         -7.2260    -1.5560     0.7820 hc         1 9ML       0.033700
     53 H22         -7.6150     0.6160    -0.4260 hc         1 9ML       0.040200
     54 H23         -7.5190    -0.2270    -1.9720 hc         1 9ML       0.040200
     55 H24         -9.5450    -1.5920    -1.3640 hc         1 9ML       0.030033
     56 H25         -9.6420    -0.7420     0.1960 hc         1 9ML       0.030033
     57 H26         -9.8930     0.1500    -1.3200 hc         1 9ML       0.030033
     58 H27         -2.7750    -3.3640    -1.3660 ha         1 9ML       0.116000
     59 H28         -0.3800    -2.9240    -1.6710 ha         1 9ML       0.117000
     60 H29         -3.0430     0.8600     4.0610 hc         1 9ML       0.074200
     61 H30         -1.4830     0.9170     3.1290 hc         1 9ML       0.074200
     62 H31          0.0590     4.0970     0.0270 ha         1 9ML       0.119000
     63 H4          -1.0740     3.9360    -2.2180 ha         1 9ML       0.125000
@<TRIPOS>BOND
     1     1    12 ar  
     2     1    21 ar  
     3     1    33 1   
     4     2     3 1   
     5     2    22 1   
     6     2    31 1   
     7     2    34 1   
     8     3     6 1   
     9     3    31 1   
    10     3    35 1   
    11     4     7 ar  
    12     4    32 ar  
    13     4    63 1   
    14     5     6 ar  
    15     5    32 ar  
    16     5    36 1   
    17     6     9 ar  
    18     7     9 ar  
    19     7    37 1   
    20     8    15 1   
    21     8    17 1   
    22     8    38 1   
    23     8    39 1   
    24    10    11 ar  
    25    10    22 ar  
    26    10    40 1   
    27    11    20 1   
    28    11    30 ar  
    29    12    15 1   
    30    12    19 ar  
    31    13    19 ar  
    32    13    20 ar  
    33    13    41 1   
    34    14    15 2   
    35    15    16 2   
    36    17    18 1   
    37    17    42 1   
    38    17    43 1   
    39    18    44 1   
    40    19    45 1   
    41    20    21 ar  
    42    21    46 1   
    43    22    23 ar  
    44    23    24 1   
    45    23    29 ar  
    46    24    25 1   
    47    24    47 1   
    48    24    48 1   
    49    25    26 1   
    50    25    49 1   
    51    25    50 1   
    52    26    27 1   
    53    26    51 1   
    54    26    52 1   
    55    27    28 1   
    56    27    53 1   
    57    27    54 1   
    58    28    55 1   
    59    28    56 1   
    60    28    57 1   
    61    29    30 ar  
    62    29    58 1   
    63    30    59 1   
    64    31    60 1   
    65    31    61 1   
    66    32    62 1   
@<TRIPOS>SUBSTRUCTURE
     1 9ML         1 TEMP              0 ****  ****    0 ROOT
