@<TRIPOS>MOLECULE
9ML
   63    66     1     0     0
SMALL
bcc


@<TRIPOS>ATOM
      1 C12          3.1610     0.5190    -0.1610 ca         1 9ML      -0.032000
      2 C13         -2.9890    -0.1720     2.1600 cx         1 9ML      -0.069400
      3 C14         -3.3790     1.2990     2.0090 cx         1 9ML      -0.170000
      4 C15         -2.4810     3.3690    -1.5530 ca         1 9ML      -0.247300
      5 C17         -1.7100     2.5160     0.5400 ca         1 9ML      -0.240300
      6 C18         -3.0000     2.0560     0.7920 ca         1 9ML       0.453600
      7 C19         -3.7390     2.9010    -1.2050 ca         1 9ML       0.409200
      8 C20          6.4200    -0.5660     0.8220 c3         1 9ML      -0.197600
      9 N1          -3.9950     2.2660    -0.0700 nb         1 9ML      -0.676000
     10 C5          -0.8720    -0.6680     0.9100 ca         1 9ML      -0.104000
     11 C6          -0.1450    -1.2950    -0.1010 cp         1 9ML      -0.061000
     12 C7           4.0060    -0.4950    -0.5900 ca         1 9ML      -0.272500
     13 C9           2.1670    -2.0180    -0.7050 ca         1 9ML      -0.143500
     14 O1           5.9150     1.2650    -1.0140 o          1 9ML      -0.594300
     15 S1           5.7340    -0.1680    -0.7830 sy         1 9ML       1.081300
     16 O2           6.2770    -1.1090    -1.7610 o          1 9ML      -0.594300
     17 C21          7.9230    -0.3220     0.8420 c3         1 9ML       0.168400
     18 O3           8.3660    -0.6820     2.1280 oh         1 9ML      -0.590800
     19 C8           3.5170    -1.7640    -0.8690 ca         1 9ML      -0.032000
     20 C10          1.2920    -1.0180    -0.2720 cp         1 9ML       0.037000
     21 C11          1.8120     0.2510    -0.0080 ca         1 9ML      -0.143500
     22 C4          -2.2330    -0.8850     1.0970 ca         1 9ML      -0.040300
     23 C3          -2.8930    -1.7980     0.2570 ca         1 9ML      -0.046300
     24 C24         -4.3650    -2.0860     0.3620 c3         1 9ML      -0.033100
     25 C25         -5.2050    -1.0840    -0.4320 c3         1 9ML      -0.082400
     26 C26         -6.7030    -1.3080    -0.2780 c3         1 9ML      -0.071400
     27 C27         -7.5320    -0.3100    -1.0780 c3         1 9ML      -0.076400
     28 C28         -9.0320    -0.5130    -0.9110 c3         1 9ML      -0.088100
     29 C23         -2.1610    -2.4340    -0.7430 ca         1 9ML      -0.131000
     30 C1          -0.8120    -2.1880    -0.9340 ca         1 9ML      -0.105000
     31 C22         -2.4010     0.8710     3.0530 cx         1 9ML      -0.109400
     32 C16         -1.4470     3.1740    -0.6510 ca         1 9ML      -0.088000
     33 H1           3.5380     1.5120     0.0440 ha         1 9ML       0.155000
     34 H2          -3.7700    -0.7660     2.6190 hc         1 9ML       0.088700
     35 H3          -4.3850     1.5210     2.3460 hc         1 9ML       0.100700
     36 H5          -0.9220     2.3860     1.2680 ha         1 9ML       0.135000
     37 H6          -4.5810     3.0500    -1.8720 h4         1 9ML       0.018100
     38 H7           5.9070     0.0590     1.5550 h1         1 9ML       0.107200
     39 H8           6.1850    -1.6130     1.0210 h1         1 9ML       0.107200
     40 H9          -0.3430    -0.0180     1.5950 ha         1 9ML       0.129000
     41 H10          1.7970    -3.0150    -0.9040 ha         1 9ML       0.139500
     42 H11          8.4030    -0.9240     0.0630 h1         1 9ML       0.037700
     43 H12          8.1270     0.7300     0.6200 h1         1 9ML       0.037700
     44 H13          9.3130    -0.5170     2.1730 ho         1 9ML       0.408000
     45 H14          4.1740    -2.5550    -1.2050 ha         1 9ML       0.155000
     46 H15          1.1550     1.0540     0.3000 ha         1 9ML       0.139500
     47 H16         -4.5580    -3.0940    -0.0150 hc         1 9ML       0.045200
     48 H17         -4.6910    -2.0890     1.4050 hc         1 9ML       0.045200
     49 H18         -4.9550    -0.0660    -0.1250 hc         1 9ML       0.053200
     50 H19         -4.9300    -1.1570    -1.4900 hc         1 9ML       0.053200
     51 H20         -6.9610    -2.3270    -0.5890 hc         1 9ML       0.033700
     52 H21         -6.9750    -1.2370     0.7810 hc         1 9ML       0.033700
     53 H22         -7.2610     0.7050    -0.7730 hc         1 9ML       0.040200
     54 H23         -7.2680    -0.3890    -2.1370 hc         1 9ML       0.040200
     55 H24         -9.3350    -1.5090    -1.2400 hc         1 9ML       0.030033
     56 H25         -9.3310    -0.4070     0.1340 hc         1 9ML       0.030033
     57 H26         -9.6020     0.2130    -1.4920 hc         1 9ML       0.030033
     58 H27         -2.6670    -3.1350    -1.3970 ha         1 9ML       0.134000
     59 H28         -0.2900    -2.6820    -1.7440 ha         1 9ML       0.135000
     60 H29         -2.7390     0.8840     4.0810 hc         1 9ML       0.074200
     61 H30         -1.3600     1.1470     2.9500 hc         1 9ML       0.074200
     62 H31         -0.4500     3.5370    -0.8650 ha         1 9ML       0.137000
     63 H4          -2.3240     3.8810    -2.4930 ha         1 9ML       0.143000
@<TRIPOS>BOND
     1     1    12 ar  
     2     1    21 ar  
     3     1    33 1   
     4     2     3 1   
     5     2    22 1   
     6     2    31 1   
     7     2    34 1   
     8     3     6 1   
     9     3    31 1   
    10     3    35 1   
    11     4     7 ar  
    12     4    32 ar  
    13     4    63 1   
    14     5     6 ar  
    15     5    32 ar  
    16     5    36 1   
    17     6     9 ar  
    18     7     9 ar  
    19     7    37 1   
    20     8    15 1   
    21     8    17 1   
    22     8    38 1   
    23     8    39 1   
    24    10    11 ar  
    25    10    22 ar  
    26    10    40 1   
    27    11    20 1   
    28    11    30 ar  
    29    12    15 1   
    30    12    19 ar  
    31    13    19 ar  
    32    13    20 ar  
    33    13    41 1   
    34    14    15 2   
    35    15    16 2   
    36    17    18 1   
    37    17    42 1   
    38    17    43 1   
    39    18    44 1   
    40    19    45 1   
    41    20    21 ar  
    42    21    46 1   
    43    22    23 ar  
    44    23    24 1   
    45    23    29 ar  
    46    24    25 1   
    47    24    47 1   
    48    24    48 1   
    49    25    26 1   
    50    25    49 1   
    51    25    50 1   
    52    26    27 1   
    53    26    51 1   
    54    26    52 1   
    55    27    28 1   
    56    27    53 1   
    57    27    54 1   
    58    28    55 1   
    59    28    56 1   
    60    28    57 1   
    61    29    30 ar  
    62    29    58 1   
    63    30    59 1   
    64    31    60 1   
    65    31    61 1   
    66    32    62 1   
@<TRIPOS>SUBSTRUCTURE
     1 9ML         1 TEMP              0 ****  ****    0 ROOT
