@<TRIPOS>MOLECULE
9MN
   40    39     1     0     0
SMALL
bcc


@<TRIPOS>ATOM
      1 CB           1.6900    -2.2540   -47.2940 c3         1 9MN      -0.048400
      2 C6           1.5480    -3.0550   -46.0060 c3         1 9MN      -0.074400
      3 C14          5.2570    -7.4520   -41.7150 c3         1 9MN      -0.077400
      4 C15          5.7090    -6.9950   -40.3310 c3         1 9MN      -0.074400
      5 C16          7.0700    -7.4800   -39.8680 c3         1 9MN       0.018000
      6 CA           0.5090    -1.3290   -47.5730 c3         1 9MN       0.024500
      7 N           -0.7290    -2.0930   -47.6670 n8         1 9MN      -0.893800
      8 C            0.7200    -0.4700   -48.8500 c          1 9MN       0.931600
      9 O           -0.2920    -0.2350   -49.5420 o          1 9MN      -0.836800
     10 CD           2.7780    -3.9030   -45.7100 c3         1 9MN      -0.100400
     11 CE           2.6410    -4.6990   -44.4170 c3         1 9MN       0.096000
     12 NZ           3.8260    -5.4630   -44.0910 ns         1 9MN      -0.570900
     13 C10          4.0720    -6.7000   -44.5580 c          1 9MN       0.663100
     14 O11          3.2620    -7.3270   -45.2290 o          1 9MN      -0.607100
     15 C12          5.4440    -7.2710   -44.2430 c3         1 9MN      -0.169400
     16 C13          6.0650    -6.9210   -42.8930 c3         1 9MN      -0.072400
     17 O1           1.8740    -0.0470   -49.0560 o          1 9MN      -0.836800
     18 H51          1.8140    -2.9450   -48.1360 hc         1 9MN       0.046200
     19 H52          2.6020    -1.6570   -47.2440 hc         1 9MN       0.046200
     20 H62          1.3700    -2.3690   -45.1690 hc         1 9MN       0.027700
     21 H61          0.6680    -3.7040   -46.0640 hc         1 9MN       0.027700
     22 H142         4.2130    -7.1490   -41.8270 hc         1 9MN       0.047700
     23 H141         5.2580    -8.5470   -41.7470 hc         1 9MN       0.047700
     24 H152         5.6380    -5.9090   -40.2400 hc         1 9MN       0.051700
     25 H151         4.9980    -7.3980   -39.6030 hc         1 9MN       0.051700
     26 H161         7.1470    -7.4540   -38.7830 h1         1 9MN       0.067200
     27 H162         7.2800    -8.4930   -40.2100 h1         1 9MN       0.067200
     28 HA           0.4710    -0.6000   -46.7420 h1         1 9MN      -0.009300
     29 H2          -1.1090    -2.2570   -46.7440 hn         1 9MN       0.325300
     30 H3          -1.4030    -1.5260   -48.1650 hn         1 9MN       0.325300
     31 H72          2.9590    -4.5930   -46.5400 hc         1 9MN       0.043200
     32 H71          3.6600    -3.2590   -45.6420 hc         1 9MN       0.043200
     33 H82          2.4450    -4.0210   -43.5840 h1         1 9MN       0.049200
     34 H81          1.7880    -5.3760   -44.4800 h1         1 9MN       0.049200
     35 H91          4.5650    -4.9720   -43.6150 hn         1 9MN       0.304500
     36 H121         5.3680    -8.3560   -44.3420 hc         1 9MN       0.066700
     37 H122         6.1130    -6.9400   -45.0440 hc         1 9MN       0.066700
     38 H131         7.0690    -7.3470   -42.8800 hc         1 9MN       0.045200
     39 H132         6.2120    -5.8410   -42.7960 hc         1 9MN       0.045200
     40 BR1          8.5770    -6.3610   -40.4980 br         1 9MN      -0.207400
@<TRIPOS>BOND
     1     1     2 1   
     2     1     6 1   
     3     1    18 1   
     4     1    19 1   
     5     2    10 1   
     6     2    20 1   
     7     2    21 1   
     8     3     4 1   
     9     3    16 1   
    10     3    22 1   
    11     3    23 1   
    12     4     5 1   
    13     4    24 1   
    14     4    25 1   
    15     5    26 1   
    16     5    27 1   
    17     5    40 1   
    18     6     7 1   
    19     6     8 1   
    20     6    28 1   
    21     7    29 1   
    22     7    30 1   
    23     8     9 1   
    24     8    17 1   
    25    10    11 1   
    26    10    31 1   
    27    10    32 1   
    28    11    12 1   
    29    11    33 1   
    30    11    34 1   
    31    12    13 1   
    32    12    35 1   
    33    13    14 2   
    34    13    15 1   
    35    15    16 1   
    36    15    36 1   
    37    15    37 1   
    38    16    38 1   
    39    16    39 1   
@<TRIPOS>SUBSTRUCTURE
     1 9MN         1 TEMP              0 ****  ****    0 ROOT
