@<TRIPOS>MOLECULE
9MP
   71    75     1     0     0
SMALL
abcg2


@<TRIPOS>ATOM
      1 C4          -1.7020     1.1110     0.6580 ca         1 9MP      -0.060200
      2 C5          -2.7870     0.3150     1.0520 ca         1 9MP       0.064400
      3 C6          -3.7090     0.7730     1.9930 ca         1 9MP      -0.072000
      4 C10          0.1680     0.7200    -1.0240 c3         1 9MP       0.015300
      5 C15          1.0640     3.2990    -3.7570 c6         1 9MP      -0.073400
      6 C17          5.3600    -1.5090     2.5380 c6         1 9MP      -0.077400
      7 C21          4.5360    -0.8610     0.2440 c6         1 9MP      -0.089900
      8 C22          3.3720    -0.1090     0.8810 c6         1 9MP       0.110700
      9 C24         -0.2070     3.2010    -4.5920 c6         1 9MP      -0.076400
     10 C26         -1.2940     1.8430    -2.7640 c6         1 9MP      -0.072900
     11 C28          1.2000     2.1050    -2.8180 c6         1 9MP      -0.072900
     12 C1          -3.5130     2.0340     2.4960 ca         1 9MP       0.111000
     13 C2          -2.4370     2.8270     2.0850 ca         1 9MP       0.143000
     14 C3          -1.5100     2.3930     1.1680 ca         1 9MP      -0.113000
     15 N7          -2.7720    -0.8770     0.3790 nc         1 9MP      -0.530100
     16 C9          -1.7310    -0.8180    -0.3960 cd         1 9MP       0.411800
     17 N8          -1.0230     0.3500    -0.2700 na         1 9MP      -0.170600
     18 C11          1.3450     0.9070    -0.0560 c          1 9MP       0.591100
     19 O12          1.4400     1.9200     0.6220 o          1 9MP      -0.596100
     20 N13          2.2340    -0.0900    -0.0230 ns         1 9MP      -0.492900
     21 C18          5.7340    -0.9090     1.1870 c6         1 9MP      -0.071900
     22 C16          4.1960    -0.7550     3.1710 c6         1 9MP      -0.071900
     23 C23          2.9940    -0.7090     2.2340 c6         1 9MP      -0.089900
     24 C27         -0.0270     1.9490    -1.9160 c6         1 9MP      -0.069700
     25 C25         -1.4310     3.0420    -3.6980 c6         1 9MP      -0.073400
     26 C14         -1.3420    -1.9190    -1.3460 c3         1 9MP       0.211300
     27 C29         -0.0720    -2.6210    -0.9050 ca         1 9MP      -0.146300
     28 C30          0.9670    -2.8280    -1.8060 ca         1 9MP      -0.094000
     29 C31          2.1140    -3.5100    -1.4140 ca         1 9MP      -0.118000
     30 C32          2.2190    -3.9990    -0.1200 ca         1 9MP      -0.101000
     31 C33          1.1760    -3.8070     0.7800 ca         1 9MP      -0.118000
     32 C34          0.0360    -3.1210     0.3890 ca         1 9MP      -0.094000
     33 O35         -2.4270    -2.7980    -1.4000 os         1 9MP      -0.411000
     34 C36         -2.3180    -3.7640    -2.4220 c3         1 9MP       0.139900
     35 F20         -2.3200     4.0510     2.6180 f          1 9MP      -0.162000
     36 F19         -4.3610     2.5410     3.4020 f          1 9MP      -0.165000
     37 H1          -4.5460     0.1670     2.3140 ha         1 9MP       0.150000
     38 H2           0.3800    -0.1190    -1.6890 h1         1 9MP       0.067700
     39 H3           1.9430     3.3590    -4.4030 hc         1 9MP       0.044200
     40 H4           1.0450     4.2230    -3.1700 hc         1 9MP       0.044200
     41 H6           6.2240    -1.5030     3.2060 hc         1 9MP       0.039700
     42 H7           4.2230    -1.8840     0.0070 hc         1 9MP       0.046450
     43 H8           4.8080    -0.3850    -0.7010 hc         1 9MP       0.046450
     44 H9           3.6800     0.9290     1.0330 h1         1 9MP       0.078700
     45 H10         -0.3130     4.0830    -5.2280 hc         1 9MP       0.040200
     46 H11         -0.1330     2.3380    -5.2630 hc         1 9MP       0.040200
     47 H12         -1.2590     0.9220    -3.3600 hc         1 9MP       0.042450
     48 H13         -2.1800     1.7750    -2.1290 hc         1 9MP       0.042450
     49 H14          1.3150     1.1920    -3.4140 hc         1 9MP       0.042450
     50 H15          2.1110     2.2060    -2.2220 hc         1 9MP       0.042450
     51 H16         -0.6820     3.0260     0.8890 ha         1 9MP       0.162000
     52 H17          2.0540    -0.9250    -0.5610 hn         1 9MP       0.319500
     53 H18          6.1220     0.1050     1.3340 hc         1 9MP       0.043700
     54 H19          6.5400    -1.4840     0.7260 hc         1 9MP       0.043700
     55 H20          3.9100    -1.2180     4.1180 hc         1 9MP       0.043700
     56 H21          4.5110     0.2670     3.4100 hc         1 9MP       0.043700
     57 H22          2.1820    -0.1280     2.6790 hc         1 9MP       0.046450
     58 H23          2.6090    -1.7220     2.0750 hc         1 9MP       0.046450
     59 H24         -0.1080     2.8420    -1.2880 hc         1 9MP       0.080700
     60 H25         -1.5600     3.9500    -3.0980 hc         1 9MP       0.044200
     61 H26         -2.3360     2.9380    -4.3010 hc         1 9MP       0.044200
     62 H27         -1.1640    -1.4810    -2.3430 h1         1 9MP       0.044700
     63 H28          0.8830    -2.4570    -2.8210 ha         1 9MP       0.126000
     64 H29          2.9200    -3.6580    -2.1210 ha         1 9MP       0.120000
     65 H30          3.1110    -4.5290     0.1890 ha         1 9MP       0.118000
     66 H31          1.2550    -4.1870     1.7900 ha         1 9MP       0.120000
     67 H32         -0.7690    -2.9710     1.0990 ha         1 9MP       0.126000
     68 H33         -2.1830    -3.2990    -3.4050 h1         1 9MP       0.035367
     69 H34         -1.4910    -4.4600    -2.2560 h1         1 9MP       0.035367
     70 H35         -3.2480    -4.3290    -2.4290 h1         1 9MP       0.035367
     71 H5           5.0770    -2.5590     2.4030 hc         1 9MP       0.039700
@<TRIPOS>BOND
     1     1     2 ar  
     2     1    14 ar  
     3     1    17 1   
     4     2     3 ar  
     5     2    15 1   
     6     3    12 ar  
     7     3    37 1   
     8     4    17 1   
     9     4    18 1   
    10     4    24 1   
    11     4    38 1   
    12     5     9 1   
    13     5    11 1   
    14     5    39 1   
    15     5    40 1   
    16     6    21 1   
    17     6    22 1   
    18     6    41 1   
    19     6    71 1   
    20     7     8 1   
    21     7    21 1   
    22     7    42 1   
    23     7    43 1   
    24     8    20 1   
    25     8    23 1   
    26     8    44 1   
    27     9    25 1   
    28     9    45 1   
    29     9    46 1   
    30    10    24 1   
    31    10    25 1   
    32    10    47 1   
    33    10    48 1   
    34    11    24 1   
    35    11    49 1   
    36    11    50 1   
    37    12    13 ar  
    38    12    36 1   
    39    13    14 ar  
    40    13    35 1   
    41    14    51 1   
    42    15    16 2   
    43    16    17 1   
    44    16    26 1   
    45    18    19 2   
    46    18    20 1   
    47    20    52 1   
    48    21    53 1   
    49    21    54 1   
    50    22    23 1   
    51    22    55 1   
    52    22    56 1   
    53    23    57 1   
    54    23    58 1   
    55    24    59 1   
    56    25    60 1   
    57    25    61 1   
    58    26    27 1   
    59    26    33 1   
    60    26    62 1   
    61    27    28 ar  
    62    27    32 ar  
    63    28    29 ar  
    64    28    63 1   
    65    29    30 ar  
    66    29    64 1   
    67    30    31 ar  
    68    30    65 1   
    69    31    32 ar  
    70    31    66 1   
    71    32    67 1   
    72    33    34 1   
    73    34    68 1   
    74    34    69 1   
    75    34    70 1   
@<TRIPOS>SUBSTRUCTURE
     1 9MP         1 TEMP              0 ****  ****    0 ROOT
