@<TRIPOS>MOLECULE
9MP
   71    75     1     0     0
SMALL
No Charge or Current Charge


@<TRIPOS>ATOM
      1 C4          -1.8230     1.1350     0.6990 ca         1 9MP      -0.060200
      2 C5          -2.8840     0.3690     1.1060 ca         1 9MP       0.064400
      3 C6          -3.8050     0.8500     2.0490 ca         1 9MP      -0.072000
      4 C10          0.1310     0.8310    -0.9310 c3         1 9MP       0.015300
      5 C15          1.0450     3.4650    -3.7530 c6         1 9MP      -0.073400
      6 C17          5.4360    -1.6680     2.5000 c6         1 9MP      -0.077400
      7 C21          4.5320    -0.9330     0.2280 c6         1 9MP      -0.089900
      8 C22          3.4140    -0.1150     0.9240 c6         1 9MP       0.110700
      9 C24         -0.1390     3.1950    -4.7100 c6         1 9MP      -0.076400
     10 C26         -1.2540     1.7570    -2.9160 c6         1 9MP      -0.072900
     11 C28          1.2350     2.2990    -2.7520 c6         1 9MP      -0.072900
     12 C1          -3.6200     2.1450     2.5700 ca         1 9MP       0.111000
     13 C2          -2.5290     2.9370     2.1410 ca         1 9MP       0.143000
     14 C3          -1.6160     2.4360     1.1940 ca         1 9MP      -0.113000
     15 N7          -2.9110    -0.8610     0.4780 nc         1 9MP      -0.530100
     16 C9          -1.8270    -0.8030    -0.3280 cd         1 9MP       0.411800
     17 N8          -1.1030     0.4040    -0.2180 na         1 9MP      -0.170600
     18 C11          1.3290     1.0040     0.0390 c          1 9MP       0.591100
     19 O12          1.5090     2.0110     0.7100 o          1 9MP      -0.596100
     20 N13          2.2200    -0.0490     0.0740 ns         1 9MP      -0.492900
     21 C18          5.7890    -1.0490     1.1250 c6         1 9MP      -0.071900
     22 C16          4.3140    -0.8650     3.2020 c6         1 9MP      -0.071900
     23 C23          3.0630    -0.7460     2.2960 c6         1 9MP      -0.089900
     24 C27         -0.0650     2.0170    -1.9400 c6         1 9MP      -0.069700
     25 C25         -1.4390     2.9240    -3.9180 c6         1 9MP      -0.073400
     26 C14         -1.4290    -1.9370    -1.2770 c3         1 9MP       0.211300
     27 C29         -0.1200    -2.6260    -0.8790 ca         1 9MP      -0.146300
     28 C30          0.9350    -2.7410    -1.8070 ca         1 9MP      -0.094000
     29 C31          2.1280    -3.3890    -1.4440 ca         1 9MP      -0.118000
     30 C32          2.2740    -3.9270    -0.1550 ca         1 9MP      -0.101000
     31 C33          1.2280    -3.8120     0.7740 ca         1 9MP      -0.118000
     32 C34          0.0350    -3.1640     0.4150 ca         1 9MP      -0.094000
     33 O35         -2.4760    -2.9370    -1.3640 os         1 9MP      -0.411000
     34 C36         -2.3170    -3.9150    -2.4080 c3         1 9MP       0.139900
     35 F20         -2.3550     4.1840     2.6380 f          1 9MP      -0.162000
     36 F19         -4.4980     2.6290     3.4790 f          1 9MP      -0.165000
     37 H1          -4.6430     0.2380     2.3680 ha         1 9MP       0.150000
     38 H2           0.4170    -0.0110    -1.5700 h1         1 9MP       0.067700
     39 H3           1.9660     3.6110    -4.3340 hc         1 9MP       0.044200
     40 H4           0.8720     4.4000    -3.2040 hc         1 9MP       0.044200
     41 H6           6.3300    -1.6970     3.1380 hc         1 9MP       0.039700
     42 H7           4.1690    -1.9380    -0.0190 hc         1 9MP       0.046450
     43 H8           4.8020    -0.4570    -0.7250 hc         1 9MP       0.046450
     44 H9           3.7860     0.9070     1.0890 h1         1 9MP       0.078700
     45 H10         -0.2820     4.0540    -5.3800 hc         1 9MP       0.040200
     46 H11          0.0910     2.3330    -5.3520 hc         1 9MP       0.040200
     47 H12         -1.0850     0.8230    -3.4700 hc         1 9MP       0.042450
     48 H13         -2.1890     1.6230    -2.3560 hc         1 9MP       0.042450
     49 H14          1.5390     1.3940    -3.2980 hc         1 9MP       0.042450
     50 H15          2.0650     2.5460    -2.0770 hc         1 9MP       0.042450
     51 H16         -0.7850     3.0540     0.8720 ha         1 9MP       0.162000
     52 H17          1.9950    -0.8600    -0.4900 hn         1 9MP       0.319500
     53 H18          6.2350    -0.0550     1.2700 hc         1 9MP       0.043700
     54 H19          6.5500    -1.6630     0.6240 hc         1 9MP       0.043700
     55 H20          4.0430    -1.3520     4.1490 hc         1 9MP       0.043700
     56 H21          4.6810     0.1380     3.4590 hc         1 9MP       0.043700
     57 H22          2.3000    -0.1370     2.8010 hc         1 9MP       0.046450
     58 H23          2.6200    -1.7400     2.1490 hc         1 9MP       0.046450
     59 H24         -0.2980     2.9120    -1.3480 hc         1 9MP       0.080700
     60 H25         -1.7400     3.8320    -3.3760 hc         1 9MP       0.044200
     61 H26         -2.2570     2.6910    -4.6130 hc         1 9MP       0.044200
     62 H27         -1.2950    -1.4780    -2.2650 h1         1 9MP       0.044700
     63 H28          0.8310    -2.3390    -2.8130 ha         1 9MP       0.126000
     64 H29          2.9390    -3.4790    -2.1650 ha         1 9MP       0.120000
     65 H30          3.1970    -4.4310     0.1240 ha         1 9MP       0.118000
     66 H31          1.3410    -4.2280     1.7730 ha         1 9MP       0.120000
     67 H32         -0.7730    -3.0880     1.1400 ha         1 9MP       0.126000
     68 H33         -2.2380    -3.4300    -3.3890 h1         1 9MP       0.035367
     69 H34         -1.4190    -4.5250    -2.2470 h1         1 9MP       0.035367
     70 H35         -3.1820    -4.5900    -2.4310 h1         1 9MP       0.035367
     71 H5           5.1150    -2.7110     2.3640 hc         1 9MP       0.039700
@<TRIPOS>BOND
     1     1     2 ar  
     2     1    14 ar  
     3     1    17 1   
     4     2     3 ar  
     5     2    15 1   
     6     3    12 ar  
     7     3    37 1   
     8     4    17 1   
     9     4    18 1   
    10     4    24 1   
    11     4    38 1   
    12     5     9 1   
    13     5    11 1   
    14     5    39 1   
    15     5    40 1   
    16     6    21 1   
    17     6    22 1   
    18     6    41 1   
    19     6    71 1   
    20     7     8 1   
    21     7    21 1   
    22     7    42 1   
    23     7    43 1   
    24     8    20 1   
    25     8    23 1   
    26     8    44 1   
    27     9    25 1   
    28     9    45 1   
    29     9    46 1   
    30    10    24 1   
    31    10    25 1   
    32    10    47 1   
    33    10    48 1   
    34    11    24 1   
    35    11    49 1   
    36    11    50 1   
    37    12    13 ar  
    38    12    36 1   
    39    13    14 ar  
    40    13    35 1   
    41    14    51 1   
    42    15    16 2   
    43    16    17 1   
    44    16    26 1   
    45    18    19 2   
    46    18    20 1   
    47    20    52 1   
    48    21    53 1   
    49    21    54 1   
    50    22    23 1   
    51    22    55 1   
    52    22    56 1   
    53    23    57 1   
    54    23    58 1   
    55    24    59 1   
    56    25    60 1   
    57    25    61 1   
    58    26    27 1   
    59    26    33 1   
    60    26    62 1   
    61    27    28 ar  
    62    27    32 ar  
    63    28    29 ar  
    64    28    63 1   
    65    29    30 ar  
    66    29    64 1   
    67    30    31 ar  
    68    30    65 1   
    69    31    32 ar  
    70    31    66 1   
    71    32    67 1   
    72    33    34 1   
    73    34    68 1   
    74    34    69 1   
    75    34    70 1   
@<TRIPOS>SUBSTRUCTURE
     1 9MP         1 TEMP              0 ****  ****    0 ROOT
