@<TRIPOS>MOLECULE
9MQ
   78    81     1     0     0
SMALL
No Charge or Current Charge


@<TRIPOS>ATOM
      1 C20         -4.1430     2.0170     0.2460 c3         1 9MQ       0.108000
      2 C27         -5.5710     1.4130     0.3610 c6         1 9MQ      -0.114700
      3 C32         -5.5720     0.0180     1.0520 c6         1 9MQ       0.216800
      4 C33         -6.5210     2.3860     1.1170 c6         1 9MQ      -0.073400
      5 N37         -6.9580    -0.5180     1.1360 nh         1 9MQ      -0.741600
      6 C38         -7.9380     1.7800     1.2660 c6         1 9MQ      -0.108400
      7 C40         -7.8790     0.3660     1.9020 c6         1 9MQ       0.205800
      8 C41         -7.3950    -1.4190     0.2260 c2         1 9MQ       0.794100
      9 N42         -6.8430    -2.5330     0.0950 n2         1 9MQ      -0.880100
     10 N43         -8.3560    -0.9950    -0.5750 nv         1 9MQ      -1.068200
     11 N3          -0.0200     1.4710    -1.5810 n7         1 9MQ      -0.876300
     12 C1          -0.0300     0.0580    -1.0850 c3         1 9MQ       0.147500
     13 C2           0.9030    -0.8960    -1.9250 c          1 9MQ       0.578100
     14 O6           0.8550    -0.8490    -3.1530 o          1 9MQ      -0.676100
     15 C4          -1.4930    -0.4320    -1.1230 c3         1 9MQ      -0.159400
     16 C8          -2.3370     0.2860    -0.0760 c          1 9MQ       0.606100
     17 O15         -2.2580     0.0290     1.1160 o          1 9MQ      -0.587100
     18 N14         -3.2320     1.2100    -0.5700 ns         1 9MQ      -0.504900
     19 O13          2.2200     2.0430    -2.5410 o          1 9MQ      -0.546500
     20 O12          0.8550     3.7740    -1.2280 o          1 9MQ      -0.546500
     21 C18          3.2640     1.0980     0.1230 ca         1 9MQ       0.015000
     22 C11          2.0520     1.8190     0.1230 ca         1 9MQ      -0.296500
     23 C19          1.3840     2.0720     1.3380 ca         1 9MQ      -0.025000
     24 C26          1.9150     1.5880     2.5460 ca         1 9MQ      -0.108000
     25 C35          3.6470     0.3640     3.7560 ca         1 9MQ      -0.101000
     26 C39          4.8480    -0.3670     3.7530 ca         1 9MQ      -0.101000
     27 C36          5.5240    -0.6040     2.5440 ca         1 9MQ      -0.125000
     28 C31          5.0000    -0.1120     1.3360 ca         1 9MQ      -0.084000
     29 C25          3.7960     0.6170     1.3340 ca         1 9MQ      -0.066000
     30 C30          3.1170     0.8580     2.5480 ca         1 9MQ       0.007000
     31 N5           1.8260    -1.7630    -1.2730 n          1 9MQ      -0.329800
     32 C9           2.7590    -2.5970    -2.0690 c3         1 9MQ       0.134300
     33 C10          1.7550    -2.0760     0.1890 c3         1 9MQ      -0.072000
     34 C16          4.1850    -2.0600    -2.0830 ca         1 9MQ      -0.085300
     35 C17          0.5700    -2.9690     0.6360 c          1 9MQ       0.713000
     36 C21          5.2000    -2.7110    -1.3530 ca         1 9MQ      -0.096500
     37 C22          4.5010    -0.9120    -2.8340 ca         1 9MQ      -0.096500
     38 O23          0.2150    -2.9010     1.8020 o          1 9MQ      -0.713000
     39 O24          0.0290    -3.6860    -0.1940 o          1 9MQ      -0.713000
     40 C28          6.5170    -2.2200    -1.3790 ca         1 9MQ      -0.121500
     41 C29          5.8160    -0.4170    -2.8530 ca         1 9MQ      -0.121500
     42 C34          6.8250    -1.0710    -2.1280 ca         1 9MQ      -0.124000
     43 H201        -4.2170     3.0120    -0.2140 h1         1 9MQ       0.055700
     44 H202        -3.7200     2.1490     1.2510 h1         1 9MQ       0.055700
     45 H27         -5.9410     1.2940    -0.6670 hc         1 9MQ       0.046700
     46 H321        -4.9190    -0.6790     0.5060 h1         1 9MQ       0.085200
     47 H322        -5.1480     0.1230     2.0620 h1         1 9MQ       0.085200
     48 H331        -6.1110     2.6060     2.1130 hc         1 9MQ       0.041700
     49 H332        -6.5830     3.3460     0.5860 hc         1 9MQ       0.041700
     50 H381        -8.5600     2.4370     1.8880 hc         1 9MQ       0.035700
     51 H382        -8.4260     1.7340     0.2840 hc         1 9MQ       0.035700
     52 H401        -8.8880    -0.0700     1.9650 h1         1 9MQ       0.054200
     53 H402        -7.5130     0.4660     2.9350 h1         1 9MQ       0.054200
     54 H42         -7.3410    -3.0250    -0.6520 hn         1 9MQ       0.369400
     55 H431        -8.4660     0.0010    -0.4700 hn         1 9MQ       0.441500
     56 H432        -8.2440    -1.3000    -1.5310 hn         1 9MQ       0.441500
     57 H3          -0.0820     1.4510    -2.6000 hn         1 9MQ       0.505000
     58 H1           0.2820     0.0190    -0.0370 h1         1 9MQ       0.098700
     59 H41C        -1.9010    -0.2710    -2.1270 hc         1 9MQ       0.101200
     60 H42C        -1.5080    -1.5010    -0.8880 hc         1 9MQ       0.101200
     61 H14         -3.2110     1.3720    -1.5700 hn         1 9MQ       0.311500
     62 H19          0.4470     2.6290     1.3470 ha         1 9MQ       0.147000
     63 H26          1.3880     1.7780     3.4770 ha         1 9MQ       0.121000
     64 H35          3.1300     0.5440     4.6950 ha         1 9MQ       0.117000
     65 H39          5.2550    -0.7480     4.6870 ha         1 9MQ       0.108000
     66 H36          6.4530    -1.1690     2.5410 ha         1 9MQ       0.108000
     67 H31          5.5290    -0.2970     0.4060 ha         1 9MQ       0.114000
     68 H91C         2.7590    -3.6140    -1.6550 h1         1 9MQ       0.078200
     69 H92C         2.4060    -2.6930    -3.1030 h1         1 9MQ       0.078200
     70 H101         2.6740    -2.6010     0.4800 h1         1 9MQ       0.038700
     71 H102         1.7350    -1.1500     0.7720 h1         1 9MQ       0.038700
     72 H21          4.9700    -3.5990    -0.7680 ha         1 9MQ       0.120500
     73 H22          3.7250    -0.4000    -3.4000 ha         1 9MQ       0.120500
     74 H28          7.2970    -2.7270    -0.8150 ha         1 9MQ       0.103500
     75 H29          6.0530     0.4730    -3.4330 ha         1 9MQ       0.103500
     76 H34          7.8430    -0.6890    -2.1450 ha         1 9MQ       0.096000
     77 S7           1.3530     2.4110    -1.4230 sy         1 9MQ       1.154600
     78 H18          3.7900     0.9030    -0.8080 ha         1 9MQ       0.129000
@<TRIPOS>BOND
     1     1     2 1   
     2     1    18 1   
     3     1    43 1   
     4     1    44 1   
     5     2     3 1   
     6     2     4 1   
     7     2    45 1   
     8     3     5 1   
     9     3    46 1   
    10     3    47 1   
    11     4     6 1   
    12     4    48 1   
    13     4    49 1   
    14     5     7 1   
    15     5     8 1   
    16     6     7 1   
    17     6    50 1   
    18     6    51 1   
    19     7    52 1   
    20     7    53 1   
    21     8     9 2   
    22     8    10 1   
    23     9    54 1   
    24    10    55 1   
    25    10    56 1   
    26    11    12 1   
    27    11    57 1   
    28    11    77 1   
    29    12    13 1   
    30    12    15 1   
    31    12    58 1   
    32    13    14 2   
    33    13    31 1   
    34    15    16 1   
    35    15    59 1   
    36    15    60 1   
    37    16    17 2   
    38    16    18 1   
    39    18    61 1   
    40    19    77 2   
    41    20    77 2   
    42    21    22 ar  
    43    21    29 ar  
    44    21    78 1   
    45    22    23 ar  
    46    22    77 1   
    47    23    24 ar  
    48    23    62 1   
    49    24    30 ar  
    50    24    63 1   
    51    25    26 ar  
    52    25    30 ar  
    53    25    64 1   
    54    26    27 ar  
    55    26    65 1   
    56    27    28 ar  
    57    27    66 1   
    58    28    29 ar  
    59    28    67 1   
    60    29    30 ar  
    61    31    32 1   
    62    31    33 1   
    63    32    34 1   
    64    32    68 1   
    65    32    69 1   
    66    33    35 1   
    67    33    70 1   
    68    33    71 1   
    69    34    36 ar  
    70    34    37 ar  
    71    35    38 1   
    72    35    39 1   
    73    36    40 ar  
    74    36    72 1   
    75    37    41 ar  
    76    37    73 1   
    77    40    42 ar  
    78    40    74 1   
    79    41    42 ar  
    80    41    75 1   
    81    42    76 1   
@<TRIPOS>SUBSTRUCTURE
     1 9MQ         1 TEMP              0 ****  ****    0 ROOT
