@<TRIPOS>MOLECULE
9MQ
   78    81     1     0     0
SMALL
abcg2


@<TRIPOS>ATOM
      1 C20         -4.1510     1.6510     0.3230 c3         1 9MQ       0.108000
      2 C27         -5.6120     1.4210    -0.0500 c6         1 9MQ      -0.114700
      3 C32         -6.1220     0.0690     0.4470 c6         1 9MQ       0.216800
      4 C33         -6.4790     2.5510     0.5080 c6         1 9MQ      -0.073400
      5 N37         -7.5260    -0.1050     0.1210 nh         1 9MQ      -0.741600
      6 C38         -7.9630     2.3100     0.2520 c6         1 9MQ      -0.108400
      7 C40         -8.3580     0.9170     0.7290 c6         1 9MQ       0.205800
      8 C41         -7.8500    -0.7200    -1.0650 c2         1 9MQ       0.794100
      9 N42         -6.9970    -1.4860    -1.6450 n2         1 9MQ      -0.880100
     10 N43         -9.1500    -0.5370    -1.5000 nv         1 9MQ      -1.068200
     11 N3          -0.1780     0.7910    -0.9560 n7         1 9MQ      -0.876300
     12 C1          -0.1940    -0.4280    -0.1670 c3         1 9MQ       0.147500
     13 C2           0.8500    -1.4020    -0.7210 c          1 9MQ       0.578100
     14 O6           1.0730    -1.3700    -1.9270 o          1 9MQ      -0.676100
     15 C4          -1.5820    -1.0790    -0.2510 c3         1 9MQ      -0.159400
     16 C8          -2.5760    -0.2340     0.5170 c          1 9MQ       0.606100
     17 O15         -2.7000    -0.3560     1.7290 o          1 9MQ      -0.587100
     18 N14         -3.2560     0.6560    -0.2190 ns         1 9MQ      -0.504900
     19 O13          0.3210     3.1720    -1.3750 o          1 9MQ      -0.546500
     20 O12         -0.3370     2.4060     0.9330 o          1 9MQ      -0.546500
     21 C18          3.0490     2.1240    -0.8470 ca         1 9MQ       0.015000
     22 C11          2.0910     1.9310     0.1120 ca         1 9MQ      -0.296500
     23 C19          2.4300     1.5350     1.4240 ca         1 9MQ      -0.025000
     24 C26          3.7450     1.3500     1.7470 ca         1 9MQ      -0.108000
     25 C35          6.1350     1.4260     1.1230 ca         1 9MQ      -0.101000
     26 C39          7.1010     1.6580     0.1830 ca         1 9MQ      -0.101000
     27 C36          6.7470     2.0260    -1.1320 ca         1 9MQ      -0.125000
     28 C31          5.4310     2.1650    -1.4810 ca         1 9MQ      -0.084000
     29 C25          4.4110     1.9470    -0.5250 ca         1 9MQ      -0.066000
     30 C30          4.7670     1.5650     0.7950 ca         1 9MQ       0.007000
     31 N5           1.4250    -2.2740     0.1150 n          1 9MQ      -0.329800
     32 C9           2.2710    -3.3270    -0.4250 c3         1 9MQ       0.134300
     33 C10          1.2500    -2.3180     1.5510 c3         1 9MQ      -0.072000
     34 C16          3.7390    -3.0500    -0.2260 ca         1 9MQ      -0.085300
     35 C17          0.2090    -3.3450     2.0570 c          1 9MQ       0.713000
     36 C21          4.5430    -3.9590     0.4530 ca         1 9MQ      -0.096500
     37 C22          4.3190    -1.8860    -0.7280 ca         1 9MQ      -0.096500
     38 O23          0.1330    -3.4260     3.2960 o          1 9MQ      -0.713000
     39 O24         -0.4370    -3.9810     1.2070 o          1 9MQ      -0.713000
     40 C28          5.9020    -3.7190     0.6250 ca         1 9MQ      -0.121500
     41 C29          5.6730    -1.6440    -0.5600 ca         1 9MQ      -0.121500
     42 C34          6.4700    -2.5590     0.1180 ca         1 9MQ      -0.124000
     43 H201        -3.8340     2.6340    -0.0350 h1         1 9MQ       0.055700
     44 H202        -4.0390     1.6570     1.4080 h1         1 9MQ       0.055700
     45 H27         -5.6960     1.4250    -1.1450 hc         1 9MQ       0.046700
     46 H321        -5.5560    -0.7480     0.0090 h1         1 9MQ       0.085200
     47 H322        -6.0100     0.0070     1.5360 h1         1 9MQ       0.085200
     48 H331        -6.3110     2.6290     1.5890 hc         1 9MQ       0.041700
     49 H332        -6.1700     3.5070     0.0770 hc         1 9MQ       0.041700
     50 H381        -8.5650     3.0630     0.7660 hc         1 9MQ       0.035700
     51 H382        -8.1790     2.4070    -0.8170 hc         1 9MQ       0.035700
     52 H401        -9.4150     0.7110     0.5610 h1         1 9MQ       0.054200
     53 H402        -8.2150     0.8530     1.8130 h1         1 9MQ       0.054200
     54 H42         -7.3870    -1.8640    -2.5000 hn         1 9MQ       0.369400
     55 H431        -9.5530     0.3820    -1.4000 hn         1 9MQ       0.441500
     56 H432        -9.3220    -0.9010    -2.4240 hn         1 9MQ       0.441500
     57 H3           0.1150     0.6420    -1.9180 hn         1 9MQ       0.505000
     58 H1          -0.0030    -0.1780     0.8760 h1         1 9MQ       0.098700
     59 H41C        -1.8580    -1.1920    -1.3020 hc         1 9MQ       0.101200
     60 H42C        -1.5410    -2.0720     0.1970 hc         1 9MQ       0.101200
     61 H14         -3.0490     0.7120    -1.2020 hn         1 9MQ       0.311500
     62 H19          1.6650     1.4020     2.1760 ha         1 9MQ       0.147000
     63 H26          4.0140     1.0500     2.7520 ha         1 9MQ       0.121000
     64 H35          6.4070     1.1320     2.1300 ha         1 9MQ       0.117000
     65 H39          8.1460     1.5520     0.4440 ha         1 9MQ       0.108000
     66 H36          7.5230     2.1980    -1.8660 ha         1 9MQ       0.108000
     67 H31          5.1560     2.4510    -2.4880 ha         1 9MQ       0.114000
     68 H91C         1.9940    -4.2620     0.0630 h1         1 9MQ       0.078200
     69 H92C         2.0510    -3.4490    -1.4840 h1         1 9MQ       0.078200
     70 H101         2.2210    -2.5560     1.9960 h1         1 9MQ       0.038700
     71 H102         1.0020    -1.3330     1.9460 h1         1 9MQ       0.038700
     72 H21          4.1050    -4.8660     0.8540 ha         1 9MQ       0.120500
     73 H22          3.7120    -1.1630    -1.2600 ha         1 9MQ       0.120500
     74 H28          6.5110    -4.4360     1.1590 ha         1 9MQ       0.103500
     75 H29          6.1080    -0.7370    -0.9580 ha         1 9MQ       0.103500
     76 H34          7.5260    -2.3660     0.2520 ha         1 9MQ       0.096000
     77 S7           0.3860     2.1890    -0.3080 sy         1 9MQ       1.154600
     78 H18          2.7830     2.4290    -1.8510 ha         1 9MQ       0.129000
@<TRIPOS>BOND
     1     1     2 1   
     2     1    18 1   
     3     1    43 1   
     4     1    44 1   
     5     2     3 1   
     6     2     4 1   
     7     2    45 1   
     8     3     5 1   
     9     3    46 1   
    10     3    47 1   
    11     4     6 1   
    12     4    48 1   
    13     4    49 1   
    14     5     7 1   
    15     5     8 1   
    16     6     7 1   
    17     6    50 1   
    18     6    51 1   
    19     7    52 1   
    20     7    53 1   
    21     8     9 2   
    22     8    10 1   
    23     9    54 1   
    24    10    55 1   
    25    10    56 1   
    26    11    12 1   
    27    11    57 1   
    28    11    77 1   
    29    12    13 1   
    30    12    15 1   
    31    12    58 1   
    32    13    14 2   
    33    13    31 1   
    34    15    16 1   
    35    15    59 1   
    36    15    60 1   
    37    16    17 2   
    38    16    18 1   
    39    18    61 1   
    40    19    77 2   
    41    20    77 2   
    42    21    22 ar  
    43    21    29 ar  
    44    21    78 1   
    45    22    23 ar  
    46    22    77 1   
    47    23    24 ar  
    48    23    62 1   
    49    24    30 ar  
    50    24    63 1   
    51    25    26 ar  
    52    25    30 ar  
    53    25    64 1   
    54    26    27 ar  
    55    26    65 1   
    56    27    28 ar  
    57    27    66 1   
    58    28    29 ar  
    59    28    67 1   
    60    29    30 ar  
    61    31    32 1   
    62    31    33 1   
    63    32    34 1   
    64    32    68 1   
    65    32    69 1   
    66    33    35 1   
    67    33    70 1   
    68    33    71 1   
    69    34    36 ar  
    70    34    37 ar  
    71    35    38 1   
    72    35    39 1   
    73    36    40 ar  
    74    36    72 1   
    75    37    41 ar  
    76    37    73 1   
    77    40    42 ar  
    78    40    74 1   
    79    41    42 ar  
    80    41    75 1   
    81    42    76 1   
@<TRIPOS>SUBSTRUCTURE
     1 9MQ         1 TEMP              0 ****  ****    0 ROOT
