@<TRIPOS>MOLECULE
9MS
   71    75     1     0     0
SMALL
No Charge or Current Charge


@<TRIPOS>ATOM
      1 C4           2.6490    -0.2320     1.0260 ca         1 9MS      -0.055200
      2 C5           2.7060    -1.4840     1.5770 ca         1 9MS       0.056400
      3 C6           3.7450    -1.8380     2.4540 ca         1 9MS      -0.016000
      4 C10          1.1100     1.0280    -0.5520 c3         1 9MS       0.012300
      5 C15          0.4810     2.1260    -2.8080 c6         1 9MS      -0.076400
      6 C17         -2.3400     5.7600     1.1050 c6         1 9MS      -0.071900
      7 C20         -0.5980     5.9830     2.9600 c6         1 9MS      -0.071900
      8 C21          0.3070     4.9640     2.2220 c6         1 9MS      -0.090400
      9 C22         -0.5320     3.9650     1.3840 c6         1 9MS       0.110700
     10 C24          1.2790     1.1170    -5.0150 c6         1 9MS      -0.076400
     11 C26          1.9140     0.0150    -2.8000 c6         1 9MS      -0.076400
     12 C28         -2.7390    -3.1730    -1.3190 ca         1 9MS      -0.194000
     13 C1           4.7290    -0.8740     2.7610 ca         1 9MS      -0.175000
     14 C2           4.6570     0.4140     2.1920 ca         1 9MS       0.186000
     15 C3           3.6110     0.7530     1.3130 ca         1 9MS      -0.167000
     16 N7           1.6540    -2.2800     1.1650 nc         1 9MS      -0.538100
     17 C9           0.9540    -1.4530     0.3560 cd         1 9MS       0.438800
     18 N8           1.5430    -0.1730     0.2140 na         1 9MS      -0.175600
     19 C11          0.0010     1.7890     0.2110 c          1 9MS       0.583100
     20 O12         -1.1100     1.3190     0.4140 o          1 9MS      -0.588100
     21 N13          0.3540     3.0410     0.6700 ns         1 9MS      -0.495900
     22 C16         -1.4250     4.7410     0.3800 c6         1 9MS      -0.090400
     23 C19         -1.5090     6.7430     1.9650 c6         1 9MS      -0.078400
     24 C27          0.7750     0.7860    -2.0660 c6         1 9MS      -0.068700
     25 C23          0.1460     1.8920    -4.3010 c6         1 9MS      -0.073400
     26 C25          1.5770    -0.2180    -4.2930 c6         1 9MS      -0.073400
     27 C33         -0.3070    -1.9090    -0.3630 c3         1 9MS       0.147300
     28 O30         -0.9300    -3.0210     0.3170 os         1 9MS      -0.307100
     29 C14         -2.0870    -3.6170    -0.1450 ca         1 9MS       0.142100
     30 C31         -3.9150    -3.8080    -1.7550 ca         1 9MS      -0.071000
     31 C34         -4.4440    -4.8840    -1.0270 ca         1 9MS       0.087000
     32 C32         -3.8020    -5.3300     0.1390 ca         1 9MS      -0.074000
     33 C29         -2.6220    -4.7020     0.5870 ca         1 9MS      -0.087300
     34 C36         -1.9340    -5.1960     1.8550 c3         1 9MS      -0.038800
     35 Cl35        -5.9160    -5.6760    -1.5750 cl         1 9MS      -0.209000
     36 F18          5.6010     1.3320     2.4920 f          1 9MS      -0.181000
     37 H1           3.7850    -2.8340     2.8880 ha         1 9MS       0.135000
     38 H2           1.9700     1.7050    -0.5750 h1         1 9MS       0.071700
     39 H3          -0.3610     2.6500    -2.3350 hc         1 9MS       0.045700
     40 H4           1.3480     2.7960    -2.7280 hc         1 9MS       0.045700
     41 H6          -3.0570     5.2240     1.7430 hc         1 9MS       0.045200
     42 H7          -1.2160     5.4590     3.7020 hc         1 9MS       0.045200
     43 H8           0.0220     6.6970     3.5180 hc         1 9MS       0.045200
     44 H9           1.0100     5.5030     1.5710 hc         1 9MS       0.045450
     45 H10          0.9160     4.4160     2.9540 hc         1 9MS       0.045450
     46 H11         -1.1740     3.3840     2.0640 h1         1 9MS       0.079700
     47 H12          0.9980     0.9230    -6.0590 hc         1 9MS       0.043200
     48 H13          2.1880     1.7340    -5.0450 hc         1 9MS       0.043200
     49 H14          2.8560     0.5760    -2.7190 hc         1 9MS       0.045700
     50 H15          2.0930    -0.9580    -2.3230 hc         1 9MS       0.045700
     51 H16         -2.3540    -2.3430    -1.9040 ha         1 9MS       0.117000
     52 H17          5.5420    -1.1220     3.4370 ha         1 9MS       0.134000
     53 H18          3.5680     1.7490     0.8830 ha         1 9MS       0.129000
     54 H19          1.2970     3.3510     0.4680 hn         1 9MS       0.311500
     55 H20         -2.0440     4.0370    -0.1920 hc         1 9MS       0.045450
     56 H21         -0.7960     5.2670    -0.3520 hc         1 9MS       0.045450
     57 H22         -0.8940     7.3770     1.3110 hc         1 9MS       0.041700
     58 H23         -2.1790     7.4190     2.5130 hc         1 9MS       0.041700
     59 H24         -0.1400     0.1810    -2.1080 hc         1 9MS       0.063700
     60 H25         -0.7960     1.3320    -4.3870 hc         1 9MS       0.043950
     61 H26         -0.0180     2.8560    -4.8020 hc         1 9MS       0.043950
     62 H27          0.7090    -0.8870    -4.3770 hc         1 9MS       0.043950
     63 H28          2.4130    -0.7300    -4.7880 hc         1 9MS       0.043950
     64 H29         -1.0090    -1.0700    -0.4160 h1         1 9MS       0.059200
     65 H30         -0.0310    -2.1930    -1.3860 h1         1 9MS       0.059200
     66 H31         -4.4170    -3.4670    -2.6580 ha         1 9MS       0.126000
     67 H32         -4.2240    -6.1650     0.6930 ha         1 9MS       0.129000
     68 H33         -1.8830    -4.4010     2.6090 hc         1 9MS       0.049367
     69 H34         -2.4630    -6.0440     2.3050 hc         1 9MS       0.049367
     70 H35         -0.9080    -5.5220     1.6430 hc         1 9MS       0.049367
     71 H5          -2.9340     6.3180     0.3690 hc         1 9MS       0.045200
@<TRIPOS>BOND
     1     1     2 ar  
     2     1    15 ar  
     3     1    18 1   
     4     2     3 ar  
     5     2    16 1   
     6     3    13 ar  
     7     3    37 1   
     8     4    18 1   
     9     4    19 1   
    10     4    24 1   
    11     4    38 1   
    12     5    24 1   
    13     5    25 1   
    14     5    39 1   
    15     5    40 1   
    16     6    22 1   
    17     6    23 1   
    18     6    41 1   
    19     6    71 1   
    20     7     8 1   
    21     7    23 1   
    22     7    42 1   
    23     7    43 1   
    24     8     9 1   
    25     8    44 1   
    26     8    45 1   
    27     9    21 1   
    28     9    22 1   
    29     9    46 1   
    30    10    25 1   
    31    10    26 1   
    32    10    47 1   
    33    10    48 1   
    34    11    24 1   
    35    11    26 1   
    36    11    49 1   
    37    11    50 1   
    38    12    29 ar  
    39    12    30 ar  
    40    12    51 1   
    41    13    14 ar  
    42    13    52 1   
    43    14    15 ar  
    44    14    36 1   
    45    15    53 1   
    46    16    17 2   
    47    17    18 1   
    48    17    27 1   
    49    19    20 2   
    50    19    21 1   
    51    21    54 1   
    52    22    55 1   
    53    22    56 1   
    54    23    57 1   
    55    23    58 1   
    56    24    59 1   
    57    25    60 1   
    58    25    61 1   
    59    26    62 1   
    60    26    63 1   
    61    27    28 1   
    62    27    64 1   
    63    27    65 1   
    64    28    29 1   
    65    29    33 ar  
    66    30    31 ar  
    67    30    66 1   
    68    31    32 ar  
    69    31    35 1   
    70    32    33 ar  
    71    32    67 1   
    72    33    34 1   
    73    34    68 1   
    74    34    69 1   
    75    34    70 1   
@<TRIPOS>SUBSTRUCTURE
     1 9MS         1 TEMP              0 ****  ****    0 ROOT
