@<TRIPOS>MOLECULE
9MS
   71    75     1     0     0
SMALL
abcg2


@<TRIPOS>ATOM
      1 C4           2.7230    -0.3370     1.1610 ca         1 9MS      -0.055200
      2 C5           2.6280    -1.6030     1.7500 ca         1 9MS       0.056400
      3 C6           3.6060    -2.0350     2.6420 ca         1 9MS      -0.016000
      4 C10          1.2790     1.0000    -0.3550 c3         1 9MS       0.012300
      5 C15          0.4890     2.1260    -2.4830 c6         1 9MS      -0.076400
      6 C17         -2.5000     5.3280     1.1720 c6         1 9MS      -0.071900
      7 C20         -0.5060     6.2910     2.3660 c6         1 9MS      -0.071900
      8 C21          0.4040     5.3000     1.6470 c6         1 9MS      -0.090400
      9 C22         -0.3550     4.0260     1.2890 c6         1 9MS       0.110700
     10 C24          0.9910     1.0780    -4.7290 c6         1 9MS      -0.076400
     11 C26          1.7700    -0.0270    -2.6080 c6         1 9MS      -0.076400
     12 C28         -2.6840    -2.7820    -1.3030 ca         1 9MS      -0.194000
     13 C1           4.6570    -1.1840     2.9260 ca         1 9MS      -0.175000
     14 C2           4.7120     0.0720     2.3210 ca         1 9MS       0.186000
     15 C3           3.7670     0.5410     1.4340 ca         1 9MS      -0.167000
     16 N7           1.4960    -2.2390     1.3050 nc         1 9MS      -0.538100
     17 C9           0.9230    -1.4040     0.4930 cd         1 9MS       0.438800
     18 N8           1.6240    -0.2290     0.3420 na         1 9MS      -0.175600
     19 C11          0.2920     1.7880     0.5110 c          1 9MS       0.583100
     20 O12         -0.6460     1.2240     1.0560 o          1 9MS      -0.588100
     21 N13          0.5380     3.0970     0.6150 ns         1 9MS      -0.495900
     22 C16         -1.5860     4.3480     0.4430 c6         1 9MS      -0.090400
     23 C19         -1.7540     6.6040     1.5460 c6         1 9MS      -0.078400
     24 C27          0.7660     0.7890    -1.7890 c6         1 9MS      -0.068700
     25 C23          0.0090     1.9110    -3.9160 c6         1 9MS      -0.073400
     26 C25          1.2800    -0.2470    -4.0350 c6         1 9MS      -0.073400
     27 C33         -0.3380    -1.7160    -0.2480 c3         1 9MS       0.147300
     28 O30         -0.8600    -2.9040     0.2820 os         1 9MS      -0.307100
     29 C14         -1.9910    -3.3950    -0.2660 ca         1 9MS       0.142100
     30 C31         -3.8430    -3.3600    -1.8100 ca         1 9MS      -0.071000
     31 C34         -4.2950    -4.5470    -1.2720 ca         1 9MS       0.087000
     32 C32         -3.6070    -5.1640    -0.2350 ca         1 9MS      -0.074000
     33 C29         -2.4510    -4.6020     0.2820 ca         1 9MS      -0.087300
     34 C36         -1.7010    -5.2640     1.3990 c3         1 9MS      -0.038800
     35 CL35        -5.7390    -5.2840    -1.8930 cl         1 9MS      -0.209000
     36 F18          5.7490     0.8720     2.6250 f          1 9MS      -0.181000
     37 H1           3.5460    -3.0120     3.1020 ha         1 9MS       0.135000
     38 H2           2.2140     1.5610    -0.4440 h1         1 9MS       0.071700
     39 H3          -0.2660     2.6970    -1.9380 hc         1 9MS       0.045700
     40 H4           1.4020     2.7320    -2.4830 hc         1 9MS       0.045700
     41 H6          -2.8850     4.8530     2.0810 hc         1 9MS       0.045200
     42 H7          -0.8020     5.8730     3.3340 hc         1 9MS       0.045200
     43 H8           0.0470     7.2080     2.5820 hc         1 9MS       0.045200
     44 H9           0.7870     5.7600     0.7290 hc         1 9MS       0.045450
     45 H10          1.2690     5.0570     2.2680 hc         1 9MS       0.045450
     46 H11         -0.6840     3.5460     2.2170 h1         1 9MS       0.079700
     47 H12          0.5980     0.9030    -5.7330 hc         1 9MS       0.043200
     48 H13          1.9270     1.6320    -4.8520 hc         1 9MS       0.043200
     49 H14          2.7240     0.5110    -2.6300 hc         1 9MS       0.045700
     50 H15          1.9740    -0.9910    -2.1350 hc         1 9MS       0.045700
     51 H16         -2.3540    -1.8490    -1.7400 ha         1 9MS       0.117000
     52 H17          5.4400    -1.4790     3.6120 ha         1 9MS       0.134000
     53 H18          3.8560     1.5270     0.9980 ha         1 9MS       0.129000
     54 H19          1.3190     3.4860     0.1080 hn         1 9MS       0.311500
     55 H20         -2.1240     3.4290     0.2030 hc         1 9MS       0.045450
     56 H21         -1.2590     4.7850    -0.5070 hc         1 9MS       0.045450
     57 H22         -1.4640     7.1350     0.6330 hc         1 9MS       0.041700
     58 H23         -2.4110     7.2770     2.1030 hc         1 9MS       0.041700
     59 H24         -0.1880     0.2540    -1.7590 hc         1 9MS       0.063700
     60 H25         -0.9630     1.4060    -3.8910 hc         1 9MS       0.043950
     61 H26         -0.1590     2.8790    -4.3930 hc         1 9MS       0.043950
     62 H27          0.3720    -0.8590    -4.0180 hc         1 9MS       0.043950
     63 H28          2.0260    -0.8180    -4.5930 hc         1 9MS       0.043950
     64 H29         -1.0480    -0.8910    -0.1410 h1         1 9MS       0.059200
     65 H30         -0.1160    -1.8390    -1.3160 h1         1 9MS       0.059200
     66 H31         -4.3760    -2.8740    -2.6150 ha         1 9MS       0.126000
     67 H32         -3.9730    -6.0960     0.1760 ha         1 9MS       0.129000
     68 H33         -1.6280    -4.6170     2.2740 hc         1 9MS       0.049367
     69 H34         -2.1980    -6.1840     1.7030 hc         1 9MS       0.049367
     70 H35         -0.6820    -5.5150     1.1030 hc         1 9MS       0.049367
     71 H5          -3.3690     5.5590     0.5520 hc         1 9MS       0.045200
@<TRIPOS>BOND
     1     1     2 ar  
     2     1    15 ar  
     3     1    18 1   
     4     2     3 ar  
     5     2    16 1   
     6     3    13 ar  
     7     3    37 1   
     8     4    18 1   
     9     4    19 1   
    10     4    24 1   
    11     4    38 1   
    12     5    24 1   
    13     5    25 1   
    14     5    39 1   
    15     5    40 1   
    16     6    22 1   
    17     6    23 1   
    18     6    41 1   
    19     6    71 1   
    20     7     8 1   
    21     7    23 1   
    22     7    42 1   
    23     7    43 1   
    24     8     9 1   
    25     8    44 1   
    26     8    45 1   
    27     9    21 1   
    28     9    22 1   
    29     9    46 1   
    30    10    25 1   
    31    10    26 1   
    32    10    47 1   
    33    10    48 1   
    34    11    24 1   
    35    11    26 1   
    36    11    49 1   
    37    11    50 1   
    38    12    29 ar  
    39    12    30 ar  
    40    12    51 1   
    41    13    14 ar  
    42    13    52 1   
    43    14    15 ar  
    44    14    36 1   
    45    15    53 1   
    46    16    17 2   
    47    17    18 1   
    48    17    27 1   
    49    19    20 2   
    50    19    21 1   
    51    21    54 1   
    52    22    55 1   
    53    22    56 1   
    54    23    57 1   
    55    23    58 1   
    56    24    59 1   
    57    25    60 1   
    58    25    61 1   
    59    26    62 1   
    60    26    63 1   
    61    27    28 1   
    62    27    64 1   
    63    27    65 1   
    64    28    29 1   
    65    29    33 ar  
    66    30    31 ar  
    67    30    66 1   
    68    31    32 ar  
    69    31    35 1   
    70    32    33 ar  
    71    32    67 1   
    72    33    34 1   
    73    34    68 1   
    74    34    69 1   
    75    34    70 1   
@<TRIPOS>SUBSTRUCTURE
     1 9MS         1 TEMP              0 ****  ****    0 ROOT
