@<TRIPOS>MOLECULE
9MT
   44    45     1     0     0
SMALL
abcg2


@<TRIPOS>ATOM
      1 N1           1.0270    -4.8930    -2.1780 n1         1 9MT      -0.460000
      2 C17          0.9920    -4.0100    -1.4410 c1         1 9MT       0.295900
      3 C16          0.9280    -2.8980    -0.5040 c3         1 9MT      -0.016300
      4 C15         -0.4830    -2.7390     0.0560 c3         1 9MT       0.054600
      5 S           -0.6140    -1.3750     1.2480 ss         1 9MT      -0.201000
      6 C14         -0.3890     0.0250     0.1710 ca         1 9MT      -0.093000
      7 C13          0.8890     0.6530     0.1050 ca         1 9MT      -0.014000
      8 C12          2.0170     0.2310     0.8310 ca         1 9MT      -0.154000
      9 C10          3.2220     0.8890     0.7090 ca         1 9MT       0.149100
     10 O            4.2440     0.4170     1.4440 os         1 9MT      -0.340100
     11 C11          5.5090     1.0430     1.3450 c3         1 9MT       0.148900
     12 C9           3.3340     2.0030    -0.1540 ca         1 9MT      -0.177000
     13 C8           2.2430     2.4260    -0.8630 ca         1 9MT      -0.042000
     14 C7           1.0000     1.7710    -0.7550 ca         1 9MT       0.230000
     15 N           -0.0380     2.2380    -1.4820 nb         1 9MT      -0.646000
     16 C5          -1.2040     1.6580    -1.3960 ca         1 9MT       0.353300
     17 C6          -2.3070     2.2350    -2.2340 c3         1 9MT      -0.148400
     18 C4          -1.4450     0.5220    -0.5570 ca         1 9MT      -0.058300
     19 C3          -2.8340    -0.0370    -0.4470 c3         1 9MT      -0.038100
     20 C2          -3.6370     0.6560     0.6580 c3         1 9MT      -0.071400
     21 C1          -5.0110     0.0310     0.8600 c3         1 9MT      -0.075400
     22 C           -5.8260     0.7460     1.9290 c3         1 9MT      -0.088100
     23 H161         1.6450    -3.0830     0.2970 hc         1 9MT       0.083700
     24 H162         1.2490    -1.9980    -1.0310 hc         1 9MT       0.083700
     25 H151        -1.2070    -2.5950    -0.7460 h1         1 9MT       0.079700
     26 H152        -0.7740    -3.6310     0.6120 h1         1 9MT       0.079700
     27 H12          1.9420    -0.6140     1.5030 ha         1 9MT       0.145000
     28 H9           4.2710     2.5320    -0.2630 ha         1 9MT       0.122000
     29 H111         5.4740     2.0900     1.6590 h1         1 9MT       0.042700
     30 H112         6.1720     0.5010     2.0150 h1         1 9MT       0.042700
     31 H113         5.9140     0.9890     0.3320 h1         1 9MT       0.042700
     32 H8           2.3190     3.2800    -1.5240 ha         1 9MT       0.132000
     33 H61C        -2.6650     1.5180    -2.9760 hc         1 9MT       0.054033
     34 H62C        -3.1690     2.5250    -1.6310 hc         1 9MT       0.054033
     35 H63C        -1.9480     3.1170    -2.7590 hc         1 9MT       0.054033
     36 H31C        -3.3610     0.0610    -1.3980 hc         1 9MT       0.054200
     37 H32C        -2.7990    -1.1050    -0.2290 hc         1 9MT       0.054200
     38 H21C        -3.0700     0.6040     1.5930 hc         1 9MT       0.046700
     39 H22C        -3.7490     1.7210     0.4270 hc         1 9MT       0.046700
     40 H11C        -5.5600     0.0400    -0.0870 hc         1 9MT       0.037200
     41 H12C        -4.8880    -1.0220     1.1310 hc         1 9MT       0.037200
     42 HC1         -5.3020     0.7510     2.8870 hc         1 9MT       0.033033
     43 HC2         -6.0140     1.7840     1.6500 hc         1 9MT       0.033033
     44 HC3         -6.7920     0.2640     2.0830 hc         1 9MT       0.033033
@<TRIPOS>BOND
     1     1     2 3   
     2     2     3 1   
     3     3     4 1   
     4     3    23 1   
     5     3    24 1   
     6     4     5 1   
     7     4    25 1   
     8     4    26 1   
     9     5     6 1   
    10     6     7 ar  
    11     6    18 ar  
    12     7     8 ar  
    13     7    14 ar  
    14     8     9 ar  
    15     8    27 1   
    16     9    10 1   
    17     9    12 ar  
    18    10    11 1   
    19    11    29 1   
    20    11    30 1   
    21    11    31 1   
    22    12    13 ar  
    23    12    28 1   
    24    13    14 ar  
    25    13    32 1   
    26    14    15 ar  
    27    15    16 ar  
    28    16    17 1   
    29    16    18 ar  
    30    17    33 1   
    31    17    34 1   
    32    17    35 1   
    33    18    19 1   
    34    19    20 1   
    35    19    36 1   
    36    19    37 1   
    37    20    21 1   
    38    20    38 1   
    39    20    39 1   
    40    21    22 1   
    41    21    40 1   
    42    21    41 1   
    43    22    42 1   
    44    22    43 1   
    45    22    44 1   
@<TRIPOS>SUBSTRUCTURE
     1 9MT         1 TEMP              0 ****  ****    0 ROOT
