@<TRIPOS>MOLECULE
9MT
   44    45     1     0     0
SMALL
No Charge or Current Charge


@<TRIPOS>ATOM
      1 N1           1.2340    -4.9770    -1.9850 n1         1 9MT      -0.460000
      2 C17          1.1240    -4.0340    -1.3100 c1         1 9MT       0.295900
      3 C16          0.9510    -2.8570    -0.4540 c3         1 9MT      -0.016300
      4 C15         -0.4670    -2.7730     0.1480 c3         1 9MT       0.054600
      5 S           -0.6420    -1.3120     1.2730 ss         1 9MT      -0.201000
      6 C14         -0.4010     0.0930     0.1730 ca         1 9MT      -0.093000
      7 C13          0.8680     0.7160     0.0580 ca         1 9MT      -0.014000
      8 C12          1.9840     0.2710     0.8060 ca         1 9MT      -0.154000
      9 C10          3.2360     0.8860     0.6730 ca         1 9MT       0.149100
     10 O            4.2800     0.3950     1.4310 os         1 9MT      -0.340100
     11 C11          5.6040     0.9540     1.3680 c3         1 9MT       0.148900
     12 C9           3.3870     1.9680    -0.2160 ca         1 9MT      -0.177000
     13 C8           2.2820     2.4210    -0.9560 ca         1 9MT      -0.042000
     14 C7           1.0190     1.8120    -0.8330 ca         1 9MT       0.230000
     15 N           -0.0120     2.2910    -1.5620 nb         1 9MT      -0.646000
     16 C5          -1.2280     1.7140    -1.4430 ca         1 9MT       0.353300
     17 C6          -2.3120     2.3580    -2.2990 c3         1 9MT      -0.148400
     18 C4          -1.4800     0.6070    -0.5920 ca         1 9MT      -0.058300
     19 C3          -2.8910     0.0060    -0.4790 c3         1 9MT      -0.038100
     20 C2          -3.6900     0.6130     0.6960 c3         1 9MT      -0.071400
     21 C1          -5.1120     0.0270     0.8290 c3         1 9MT      -0.075400
     22 C           -5.9060     0.6320     2.0020 c3         1 9MT      -0.088100
     23 H161         1.6950    -2.8960     0.3500 hc         1 9MT       0.083700
     24 H162         1.1590    -1.9630    -1.0520 hc         1 9MT       0.083700
     25 H151        -1.2100    -2.6990    -0.6570 h1         1 9MT       0.079700
     26 H152        -0.6780    -3.6820     0.7270 h1         1 9MT       0.079700
     27 H12          1.9010    -0.5550     1.5050 ha         1 9MT       0.145000
     28 H9           4.3430     2.4680    -0.3440 ha         1 9MT       0.122000
     29 H111         5.5960     2.0110     1.6640 h1         1 9MT       0.042700
     30 H112         6.2760     0.4160     2.0490 h1         1 9MT       0.042700
     31 H113         6.0140     0.8740     0.3530 h1         1 9MT       0.042700
     32 H8           2.4040     3.2590    -1.6380 ha         1 9MT       0.132000
     33 H61C        -2.6470     1.6700    -3.0840 hc         1 9MT       0.054033
     34 H62C        -3.1820     2.6350    -1.6930 hc         1 9MT       0.054033
     35 H63C        -1.9580     3.2710    -2.7940 hc         1 9MT       0.054033
     36 H31C        -3.4570     0.1510    -1.4060 hc         1 9MT       0.054200
     37 H32C        -2.8490    -1.0810    -0.3570 hc         1 9MT       0.054200
     38 H21C        -3.1420     0.4430     1.6310 hc         1 9MT       0.046700
     39 H22C        -3.7580     1.7000     0.5630 hc         1 9MT       0.046700
     40 H11C        -5.6650     0.1990    -0.1030 hc         1 9MT       0.037200
     41 H12C        -5.0460    -1.0600     0.9660 hc         1 9MT       0.037200
     42 HC1         -5.3950     0.4460     2.9540 hc         1 9MT       0.033033
     43 HC2         -6.0200     1.7160     1.8760 hc         1 9MT       0.033033
     44 HC3         -6.9070     0.1860     2.0560 hc         1 9MT       0.033033
@<TRIPOS>BOND
     1     1     2 3   
     2     2     3 1   
     3     3     4 1   
     4     3    23 1   
     5     3    24 1   
     6     4     5 1   
     7     4    25 1   
     8     4    26 1   
     9     5     6 1   
    10     6     7 ar  
    11     6    18 ar  
    12     7     8 ar  
    13     7    14 ar  
    14     8     9 ar  
    15     8    27 1   
    16     9    10 1   
    17     9    12 ar  
    18    10    11 1   
    19    11    29 1   
    20    11    30 1   
    21    11    31 1   
    22    12    13 ar  
    23    12    28 1   
    24    13    14 ar  
    25    13    32 1   
    26    14    15 ar  
    27    15    16 ar  
    28    16    17 1   
    29    16    18 ar  
    30    17    33 1   
    31    17    34 1   
    32    17    35 1   
    33    18    19 1   
    34    19    20 1   
    35    19    36 1   
    36    19    37 1   
    37    20    21 1   
    38    20    38 1   
    39    20    39 1   
    40    21    22 1   
    41    21    40 1   
    42    21    41 1   
    43    22    42 1   
    44    22    43 1   
    45    22    44 1   
@<TRIPOS>SUBSTRUCTURE
     1 9MT         1 TEMP              0 ****  ****    0 ROOT
