@<TRIPOS>MOLECULE
9MU
   66    69     1     0     0
SMALL
No Charge or Current Charge


@<TRIPOS>ATOM
      1 N12         -0.8430     2.3500     0.1110 n7         1 9MU      -0.864300
      2 C15         -0.1590     1.6370     1.2370 c3         1 9MU       0.129500
      3 C17          1.3680     1.9630     1.3360 c          1 9MU       0.578100
      4 O20          1.7940     3.1120     1.3360 o          1 9MU      -0.595100
      5 C16         -0.8840     1.9680     2.5620 c3         1 9MU      -0.019100
      6 C18         -2.2850     1.3640     2.6190 ca         1 9MU      -0.074300
      7 C21         -2.4510    -0.0110     2.8820 ca         1 9MU      -0.100000
      8 C22         -3.4210     2.1650     2.3930 ca         1 9MU      -0.100000
      9 C24         -3.7370    -0.5760     2.9220 ca         1 9MU      -0.109000
     10 C25         -4.7080     1.6000     2.4310 ca         1 9MU      -0.109000
     11 C27         -4.8660     0.2290     2.6970 ca         1 9MU      -0.114000
     12 S11         -0.6190     1.7910    -1.4430 sy         1 9MU       1.137600
     13 O14         -1.6210     2.4980    -2.2430 o          1 9MU      -0.535500
     14 O13          0.8160     1.8770    -1.7190 o          1 9MU      -0.535500
     15 C3          -2.4520    -0.1920    -0.8380 ca         1 9MU       0.035000
     16 C7          -1.1350     0.0820    -1.2560 ca         1 9MU      -0.279500
     17 C9          -0.2310    -0.9770    -1.4780 ca         1 9MU      -0.038000
     18 C5          -0.6470    -2.3050    -1.2810 ca         1 9MU      -0.121000
     19 C6          -2.3770    -3.9120    -0.6580 ca         1 9MU      -0.116000
     20 C10         -3.6890    -4.1850    -0.2340 ca         1 9MU      -0.088000
     21 C8          -4.5910    -3.1290    -0.0150 ca         1 9MU      -0.123000
     22 C4          -4.1830    -1.8000    -0.2200 ca         1 9MU      -0.076000
     23 C1          -2.8680    -1.5220    -0.6410 ca         1 9MU      -0.069000
     24 C2          -1.9620    -2.5830    -0.8620 ca         1 9MU       0.004000
     25 N19          2.2090     0.8690     1.3990 ns         1 9MU      -0.493900
     26 C23          3.6710     0.9420     1.4890 c3         1 9MU       0.106000
     27 C26          4.3870    -0.0070     0.4910 c6         1 9MU      -0.119700
     28 C28          4.0350     0.3210    -0.9900 c6         1 9MU       0.217800
     29 C29          5.9280     0.0390     0.7000 c6         1 9MU      -0.071400
     30 N30          4.7490    -0.6060    -1.9080 nh         1 9MU      -0.742600
     31 C31          6.6580    -0.8730    -0.3160 c6         1 9MU      -0.108400
     32 C32          6.2290    -0.5480    -1.7700 c6         1 9MU       0.205800
     33 C33          4.1110    -1.6750    -2.4320 c2         1 9MU       0.811100
     34 N34          4.4920    -2.8440    -1.9580 nv         1 9MU      -1.064200
     35 N35          3.1590    -1.5420    -3.2290 n2         1 9MU      -0.913100
     36 H12         -0.4740     3.2970     0.0400 hn         1 9MU       0.500000
     37 H15         -0.2420     0.5490     1.1080 h1         1 9MU       0.075700
     38 H161        -0.2890     1.5780     3.3980 hc         1 9MU       0.060200
     39 H162        -0.9190     3.0560     2.7000 hc         1 9MU       0.060200
     40 H21         -1.5830    -0.6440     3.0520 ha         1 9MU       0.110000
     41 H22         -3.3070     3.2250     2.1780 ha         1 9MU       0.110000
     42 H24         -3.8580    -1.6380     3.1210 ha         1 9MU       0.114000
     43 H25         -5.5810     2.2240     2.2530 ha         1 9MU       0.114000
     44 H27         -5.8620    -0.2090     2.7250 ha         1 9MU       0.111000
     45 H9           0.7910    -0.7780    -1.8000 ha         1 9MU       0.173000
     46 H5           0.0550    -3.1180    -1.4530 ha         1 9MU       0.115000
     47 H6          -1.6840    -4.7340    -0.8250 ha         1 9MU       0.115000
     48 H10         -4.0070    -5.2130    -0.0760 ha         1 9MU       0.113000
     49 H8          -5.6060    -3.3410     0.3130 ha         1 9MU       0.115000
     50 H4          -4.8870    -0.9890    -0.0470 ha         1 9MU       0.119000
     51 H19          1.7760    -0.0480     1.3990 hn         1 9MU       0.313500
     52 H231         4.0090     1.9700     1.3030 h1         1 9MU       0.059700
     53 H232         3.9660     0.6730     2.5120 h1         1 9MU       0.059700
     54 H26          4.0340    -1.0230     0.7180 hc         1 9MU       0.048700
     55 H281         2.9470     0.2670    -1.1460 h1         1 9MU       0.085200
     56 H282         4.3310     1.3600    -1.2020 h1         1 9MU       0.085200
     57 H291         6.2880     1.0720     0.5870 hc         1 9MU       0.044200
     58 H292         6.1810    -0.2700     1.7240 hc         1 9MU       0.044200
     59 H311         7.7450    -0.7450    -0.2160 hc         1 9MU       0.043200
     60 H312         6.4510    -1.9250    -0.0850 hc         1 9MU       0.043200
     61 H321         6.7200    -1.2340    -2.4770 h1         1 9MU       0.060200
     62 H322         6.5800     0.4650    -2.0170 h1         1 9MU       0.060200
     63 H341         5.0800    -2.7020    -1.1520 hn         1 9MU       0.448500
     64 H342         3.7240    -3.4800    -1.8020 hn         1 9MU       0.448500
     65 H35          2.8510    -2.4850    -3.4800 hn         1 9MU       0.371400
     66 H3          -3.1450     0.6260    -0.6500 ha         1 9MU       0.135000
@<TRIPOS>BOND
     1     1     2 1   
     2     1    12 1   
     3     1    36 1   
     4     2     3 1   
     5     2     5 1   
     6     2    37 1   
     7     3     4 2   
     8     3    25 1   
     9     5     6 1   
    10     5    38 1   
    11     5    39 1   
    12     6     7 ar  
    13     6     8 ar  
    14     7     9 ar  
    15     7    40 1   
    16     8    10 ar  
    17     8    41 1   
    18     9    11 ar  
    19     9    42 1   
    20    10    11 ar  
    21    10    43 1   
    22    11    44 1   
    23    12    13 2   
    24    12    14 2   
    25    12    16 1   
    26    15    16 ar  
    27    15    23 ar  
    28    15    66 1   
    29    16    17 ar  
    30    17    18 ar  
    31    17    45 1   
    32    18    24 ar  
    33    18    46 1   
    34    19    20 ar  
    35    19    24 ar  
    36    19    47 1   
    37    20    21 ar  
    38    20    48 1   
    39    21    22 ar  
    40    21    49 1   
    41    22    23 ar  
    42    22    50 1   
    43    23    24 ar  
    44    25    26 1   
    45    25    51 1   
    46    26    27 1   
    47    26    52 1   
    48    26    53 1   
    49    27    28 1   
    50    27    29 1   
    51    27    54 1   
    52    28    30 1   
    53    28    55 1   
    54    28    56 1   
    55    29    31 1   
    56    29    57 1   
    57    29    58 1   
    58    30    32 1   
    59    30    33 1   
    60    31    32 1   
    61    31    59 1   
    62    31    60 1   
    63    32    61 1   
    64    32    62 1   
    65    33    34 1   
    66    33    35 2   
    67    34    63 1   
    68    34    64 1   
    69    35    65 1   
@<TRIPOS>SUBSTRUCTURE
     1 9MU         1 TEMP              0 ****  ****    0 ROOT
