@<TRIPOS>MOLECULE
9MU
   66    69     1     0     0
SMALL
bcc


@<TRIPOS>ATOM
      1 N12         -0.8170     2.1860     0.1700 n7         1 9MU      -0.809100
      2 C15         -0.0330     1.5330     1.1980 c3         1 9MU       0.129500
      3 C17          1.4270     1.9860     1.1830 c          1 9MU       0.645100
      4 O20          1.7170     3.1530     0.9700 o          1 9MU      -0.595100
      5 C16         -0.6760     1.8100     2.5640 c3         1 9MU      -0.019100
      6 C18         -2.0760     1.2680     2.6120 ca         1 9MU      -0.074300
      7 C21         -2.2960    -0.0990     2.7580 ca         1 9MU      -0.118000
      8 C22         -3.1750     2.1070     2.4560 ca         1 9MU      -0.118000
      9 C24         -3.5820    -0.6190     2.7430 ca         1 9MU      -0.127000
     10 C25         -4.4650     1.5930     2.4460 ca         1 9MU      -0.127000
     11 C27         -4.6720     0.2270     2.5880 ca         1 9MU      -0.132000
     12 S11         -0.6710     1.6350    -1.3810 sy         1 9MU       1.279200
     13 O14         -1.5900     2.4370    -2.1740 o          1 9MU      -0.606300
     14 O13          0.7180     1.5530    -1.8180 o          1 9MU      -0.606300
     15 C3          -2.6030    -0.1960    -0.9000 ca         1 9MU       0.017000
     16 C7          -1.2780    -0.0170    -1.1980 ca         1 9MU      -0.279500
     17 C9          -0.3890    -1.1010    -1.3420 ca         1 9MU      -0.056000
     18 C5          -0.8680    -2.3700    -1.1740 ca         1 9MU      -0.139000
     19 C6          -2.7380    -3.9120    -0.6790 ca         1 9MU      -0.134000
     20 C10         -4.0580    -4.1040    -0.3760 ca         1 9MU      -0.106000
     21 C8          -4.9340    -3.0040    -0.2500 ca         1 9MU      -0.141000
     22 C4          -4.4690    -1.7310    -0.4240 ca         1 9MU      -0.094000
     23 C1          -3.1080    -1.5000    -0.7320 ca         1 9MU      -0.069000
     24 C2          -2.2280    -2.6060    -0.8660 ca         1 9MU       0.004000
     25 N19          2.3060     1.0160     1.4580 ns         1 9MU      -0.560900
     26 C23          3.7440     1.1740     1.4810 c3         1 9MU       0.106000
     27 C26          4.4340     0.1560     0.5800 c6         1 9MU      -0.119700
     28 C28          4.0230     0.3290    -0.8830 c6         1 9MU       0.217800
     29 C29          5.9530     0.2660     0.7200 c6         1 9MU      -0.071400
     30 N30          4.7210    -0.6210    -1.7270 nh         1 9MU      -0.742600
     31 C31          6.6810    -0.6640    -0.2480 c6         1 9MU      -0.108400
     32 C32          6.1610    -0.4550    -1.6660 c6         1 9MU       0.205800
     33 C33          4.1130    -1.8200    -2.0120 c2         1 9MU       0.811100
     34 N34          4.9420    -2.8070    -2.5110 nv         1 9MU      -0.953800
     35 N35          2.8370    -1.9390    -1.9000 n2         1 9MU      -0.913100
     36 H12         -0.7970     3.2020     0.2080 hn         1 9MU       0.444800
     37 H15         -0.0900     0.4540     1.0260 h1         1 9MU       0.075700
     38 H161        -0.0580     1.3480     3.3370 hc         1 9MU       0.060200
     39 H162        -0.6710     2.8870     2.7530 hc         1 9MU       0.060200
     40 H21         -1.4520    -0.7690     2.8810 ha         1 9MU       0.128000
     41 H22         -3.0220     3.1740     2.3400 ha         1 9MU       0.128000
     42 H24         -3.7330    -1.6850     2.8470 ha         1 9MU       0.132000
     43 H25         -5.3090     2.2610     2.3260 ha         1 9MU       0.132000
     44 H27         -5.6770    -0.1760     2.5760 ha         1 9MU       0.129000
     45 H9           0.6620    -0.9500    -1.5650 ha         1 9MU       0.191000
     46 H5          -0.1960    -3.2130    -1.2710 ha         1 9MU       0.133000
     47 H6          -2.0680    -4.7570    -0.7790 ha         1 9MU       0.133000
     48 H10         -4.4390    -5.1070    -0.2330 ha         1 9MU       0.131000
     49 H8          -5.9750    -3.1750    -0.0130 ha         1 9MU       0.133000
     50 H4          -5.1360    -0.8830    -0.3260 ha         1 9MU       0.137000
     51 H19          1.9550     0.0860     1.6250 hn         1 9MU       0.313500
     52 H231         3.9810     2.1880     1.1570 h1         1 9MU       0.059700
     53 H232         4.1100     1.0670     2.5060 h1         1 9MU       0.059700
     54 H26          4.1290    -0.8500     0.8980 hc         1 9MU       0.048700
     55 H281         2.9530     0.2050    -1.0140 h1         1 9MU       0.085200
     56 H282         4.2820     1.3410    -1.2180 h1         1 9MU       0.085200
     57 H291         6.2570     1.3000     0.5160 hc         1 9MU       0.044200
     58 H292         6.2530     0.0510     1.7490 hc         1 9MU       0.044200
     59 H311         7.7560    -0.4760    -0.2170 hc         1 9MU       0.043200
     60 H312         6.5320    -1.7070     0.0480 hc         1 9MU       0.043200
     61 H321         6.6600    -1.1020    -2.3850 h1         1 9MU       0.060200
     62 H322         6.3850     0.5690    -1.9840 h1         1 9MU       0.060200
     63 H341         5.8550    -2.9080    -2.0970 hn         1 9MU       0.393300
     64 H342         4.4910    -3.7030    -2.6070 hn         1 9MU       0.393300
     65 H35          2.5440    -2.8730    -2.1570 hn         1 9MU       0.371400
     66 H3          -3.2720     0.6470    -0.7770 ha         1 9MU       0.153000
@<TRIPOS>BOND
     1     1     2 1   
     2     1    12 1   
     3     1    36 1   
     4     2     3 1   
     5     2     5 1   
     6     2    37 1   
     7     3     4 2   
     8     3    25 1   
     9     5     6 1   
    10     5    38 1   
    11     5    39 1   
    12     6     7 ar  
    13     6     8 ar  
    14     7     9 ar  
    15     7    40 1   
    16     8    10 ar  
    17     8    41 1   
    18     9    11 ar  
    19     9    42 1   
    20    10    11 ar  
    21    10    43 1   
    22    11    44 1   
    23    12    13 2   
    24    12    14 2   
    25    12    16 1   
    26    15    16 ar  
    27    15    23 ar  
    28    15    66 1   
    29    16    17 ar  
    30    17    18 ar  
    31    17    45 1   
    32    18    24 ar  
    33    18    46 1   
    34    19    20 ar  
    35    19    24 ar  
    36    19    47 1   
    37    20    21 ar  
    38    20    48 1   
    39    21    22 ar  
    40    21    49 1   
    41    22    23 ar  
    42    22    50 1   
    43    23    24 ar  
    44    25    26 1   
    45    25    51 1   
    46    26    27 1   
    47    26    52 1   
    48    26    53 1   
    49    27    28 1   
    50    27    29 1   
    51    27    54 1   
    52    28    30 1   
    53    28    55 1   
    54    28    56 1   
    55    29    31 1   
    56    29    57 1   
    57    29    58 1   
    58    30    32 1   
    59    30    33 1   
    60    31    32 1   
    61    31    59 1   
    62    31    60 1   
    63    32    61 1   
    64    32    62 1   
    65    33    34 1   
    66    33    35 2   
    67    34    63 1   
    68    34    64 1   
    69    35    65 1   
@<TRIPOS>SUBSTRUCTURE
     1 9MU         1 TEMP              0 ****  ****    0 ROOT
