@<TRIPOS>MOLECULE
9MV
   54    58     1     0     0
SMALL
No Charge or Current Charge


@<TRIPOS>ATOM
      1 C4          -0.5000    -0.3650    -1.5230 c5         1 9MV      -0.074700
      2 C5           0.1630     1.0050    -1.6350 ca         1 9MV      -0.157300
      3 C6           1.5080     0.8740    -1.9150 ca         1 9MV       0.006000
      4 C7          -4.7750    -1.4230     1.1340 cc         1 9MV      -0.470500
      5 C10         -1.0900    -0.5570    -0.0910 c6         1 9MV      -0.084400
      6 C20         -1.8960    -1.8750     0.0360 c6         1 9MV       0.201300
      7 C21          5.5730    -0.6590     1.4160 ca         1 9MV      -0.118600
      8 C22         -4.5770    -0.5200     2.1480 cd         1 9MV      -0.004000
      9 C26          4.4320    -1.4940     1.3780 ca         1 9MV      -0.089500
     10 C28          0.3890     3.4120    -1.7220 ca         1 9MV      -0.058900
     11 O31          7.3850     0.2010     2.6710 o          1 9MV      -0.716000
     12 C12          6.4060    -0.5330     2.6840 c          1 9MV       0.711600
     13 O24          6.0700    -1.1700     3.6720 o          1 9MV      -0.716000
     14 C32          3.6640    -1.6100     0.2070 ca         1 9MV      -0.126500
     15 C29          4.0160    -0.8940    -0.9510 ca         1 9MV      -0.160300
     16 N2           1.8050    -0.4980    -2.0580 n          1 9MV      -0.201400
     17 C3           0.7020    -1.3410    -1.8290 c          1 9MV       0.569000
     18 O17          0.7190    -2.5660    -1.8610 o          1 9MV      -0.526000
     19 N8          -2.9870    -1.9470    -0.9690 n3         1 9MV      -0.739500
     20 C19         -2.4870    -1.8000    -2.3600 c6         1 9MV       0.201300
     21 C9          -1.6640    -0.4960    -2.5540 c6         1 9MV      -0.084400
     22 S1          -4.4590    -1.1790    -0.5920 sy         1 9MV       1.206600
     23 O14         -5.4890    -1.9490    -1.2970 o          1 9MV      -0.544000
     24 O15         -4.2810     0.2600    -0.8070 o          1 9MV      -0.544000
     25 C25         -4.9120    -1.0470     3.4240 cd         1 9MV      -0.163000
     26 C23         -5.3610    -2.3440     3.3790 cc         1 9MV      -0.222000
     27 S11         -5.3790    -2.9550     1.7260 ss         1 9MV       0.345000
     28 C18         -0.4220     2.2770    -1.5180 ca         1 9MV      -0.037000
     29 Br34        -0.3740     5.1590    -1.5730 br         1 9MV      -0.117100
     30 C30          1.7540     3.2700    -2.0600 ca         1 9MV      -0.046000
     31 C16          2.3220     1.9860    -2.1790 ca         1 9MV      -0.128000
     32 C33          5.1510    -0.0630    -0.9250 ca         1 9MV      -0.126500
     33 C27          5.9210     0.0540     0.2450 ca         1 9MV      -0.089500
     34 H1          -0.2770    -0.5530     0.6470 hc         1 9MV       0.059200
     35 H2          -1.7370     0.2920     0.1680 hc         1 9MV       0.059200
     36 H3           3.6560    -0.4740    -3.0400 h1         1 9MV       0.057700
     37 H4           3.1320    -2.0730    -2.5170 h1         1 9MV       0.057700
     38 H5          -1.2080    -2.7210    -0.1070 h1         1 9MV       0.081200
     39 H6          -2.2780    -1.9760     1.0620 h1         1 9MV       0.081200
     40 H7          -4.2010     0.4890     1.9970 ha         1 9MV       0.144000
     41 H8           4.1350    -2.0590     2.2600 ha         1 9MV       0.130500
     42 H10          2.7910    -2.2590     0.2030 ha         1 9MV       0.087000
     43 H11         -1.8440    -2.6560    -2.6100 h1         1 9MV       0.081200
     44 H12         -3.3170    -1.8220    -3.0830 h1         1 9MV       0.081200
     45 H13         -2.3300     0.3720    -2.4830 hc         1 9MV       0.059200
     46 H14         -1.2560    -0.4730    -3.5740 hc         1 9MV       0.059200
     47 H15         -4.8200    -0.4780     4.3440 ha         1 9MV       0.138000
     48 H16         -5.6820    -2.9890     4.1860 h4         1 9MV       0.153000
     49 H17         -1.4790     2.3860    -1.2860 ha         1 9MV       0.127000
     50 H18          2.3650     4.1520    -2.2380 ha         1 9MV       0.129000
     51 H19          3.3660     1.8680    -2.4580 ha         1 9MV       0.142000
     52 H20          5.4410     0.4960    -1.8110 ha         1 9MV       0.087000
     53 H21          6.7930     0.7050     0.2380 ha         1 9MV       0.130500
     54 C13          3.1740    -1.0180    -2.2180 c3         1 9MV       0.160300
@<TRIPOS>BOND
     1     1     2 1   
     2     1     5 1   
     3     1    17 1   
     4     1    21 1   
     5     2     3 ar  
     6     2    28 ar  
     7     3    16 1   
     8     3    31 ar  
     9     4     8 2   
    10     4    22 1   
    11     4    27 1   
    12     5     6 1   
    13     5    34 1   
    14     5    35 1   
    15     6    19 1   
    16     6    38 1   
    17     6    39 1   
    18     7     9 ar  
    19     7    12 1   
    20     7    33 ar  
    21     8    25 1   
    22     8    40 1   
    23     9    14 ar  
    24     9    41 1   
    25    10    28 ar  
    26    10    29 1   
    27    10    30 ar  
    28    11    12 1   
    29    12    13 1   
    30    14    15 ar  
    31    14    42 1   
    32    15    32 ar  
    33    15    54 1   
    34    16    17 1   
    35    16    54 1   
    36    17    18 2   
    37    19    20 1   
    38    19    22 1   
    39    20    21 1   
    40    20    43 1   
    41    20    44 1   
    42    21    45 1   
    43    21    46 1   
    44    22    23 2   
    45    22    24 2   
    46    25    26 2   
    47    25    47 1   
    48    26    27 1   
    49    26    48 1   
    50    28    49 1   
    51    30    31 ar  
    52    30    50 1   
    53    31    51 1   
    54    32    33 ar  
    55    32    52 1   
    56    33    53 1   
    57    36    54 1   
    58    37    54 1   
@<TRIPOS>SUBSTRUCTURE
     1 9MV         1 TEMP              0 ****  ****    0 ROOT
