@<TRIPOS>MOLECULE
9MV
   54    58     1     0     0
SMALL
bcc


@<TRIPOS>ATOM
      1 C4          -0.6180    -0.5710    -1.1460 c5         1 9MV      -0.074700
      2 C5          -0.1500     0.7930    -0.7280 ca         1 9MV      -0.157300
      3 C6           1.1790     0.9560    -1.1050 ca         1 9MV       0.098600
      4 C7          -4.4380    -1.0240     0.4420 cc         1 9MV      -0.325600
      5 C10         -0.9380    -1.4270     0.0950 c6         1 9MV      -0.084400
      6 C20         -1.6050    -2.7540    -0.2390 c6         1 9MV       0.201300
      7 C21          5.7020    -1.1530     1.0090 ca         1 9MV      -0.118600
      8 C22         -4.7530     0.2050    -0.0570 cd         1 9MV      -0.022000
      9 C26          4.5850    -1.9610     0.8010 ca         1 9MV      -0.107500
     10 C28         -0.1220     2.9650     0.2290 ca         1 9MV      -0.058900
     11 O31          7.6200    -0.6470     2.2890 o          1 9MV      -0.821300
     12 C12          6.6560    -1.4270     2.1650 c          1 9MV       0.922200
     13 O24          6.3890    -2.4070     2.8850 o          1 9MV      -0.821300
     14 C32          3.7090    -1.7170    -0.2430 ca         1 9MV      -0.144500
     15 C29          3.9260    -0.6500    -1.1130 ca         1 9MV      -0.160300
     16 N2           1.6140    -0.1810    -1.7780 n          1 9MV      -0.361000
     17 C3           0.6230    -1.1180    -1.8570 c          1 9MV       0.711500
     18 O17          0.7350    -2.2020    -2.3910 o          1 9MV      -0.601500
     19 N8          -2.7680    -2.5840    -1.1100 n3         1 9MV      -0.739500
     20 C19         -2.4700    -1.8630    -2.3460 c6         1 9MV       0.201300
     21 C9          -1.8300    -0.5050    -2.0890 c6         1 9MV      -0.084400
     22 S1          -4.2670    -2.5230    -0.4510 sy         1 9MV       1.348200
     23 O14         -4.3350    -3.5760     0.5470 o          1 9MV      -0.614800
     24 O15         -5.2160    -2.4810    -1.5490 o          1 9MV      -0.614800
     25 C25         -4.6840     1.2090     0.9400 cd         1 9MV      -0.181000
     26 C23         -4.3250     0.7110     2.1590 cc         1 9MV      -0.095100
     27 S11         -4.0770    -0.9790     2.1200 ss         1 9MV       0.055200
     28 C18         -0.8180     1.7920    -0.0560 ca         1 9MV      -0.055000
     29 BR34        -1.0120     4.3570     1.1460 br         1 9MV      -0.117100
     30 C30          1.2040     3.1300    -0.1430 ca         1 9MV      -0.064000
     31 C16          1.8750     2.1150    -0.8200 ca         1 9MV      -0.146000
     32 C33          5.0400     0.1560    -0.9120 ca         1 9MV      -0.144500
     33 C27          5.9190    -0.0940     0.1340 ca         1 9MV      -0.107500
     34 H1          -0.0290    -1.6170     0.6720 hc         1 9MV       0.059200
     35 H2          -1.5940    -0.8430     0.7450 hc         1 9MV       0.059200
     36 H3           3.2820     0.5080    -2.8060 h1         1 9MV       0.057700
     37 H4           2.9550    -1.2080    -2.9500 h1         1 9MV       0.057700
     38 H5          -0.9130    -3.4180    -0.7590 h1         1 9MV       0.081200
     39 H6          -1.8960    -3.2660     0.6770 h1         1 9MV       0.081200
     40 H7          -5.0230     0.3930    -1.0870 ha         1 9MV       0.162000
     41 H8           4.4050    -2.7930     1.4690 ha         1 9MV       0.148500
     42 H10          2.8560    -2.3720    -0.3820 ha         1 9MV       0.105000
     43 H11         -1.8030    -2.5020    -2.9250 h1         1 9MV       0.081200
     44 H12         -3.3770    -1.7450    -2.9350 h1         1 9MV       0.081200
     45 H13         -2.5680     0.1650    -1.6430 hc         1 9MV       0.059200
     46 H14         -1.5440    -0.0560    -3.0420 hc         1 9MV       0.059200
     47 H15         -4.8980     2.2520     0.7600 ha         1 9MV       0.156000
     48 H16         -4.2130     1.2510     3.0860 h4         1 9MV       0.171000
     49 H17         -1.8530     1.6680     0.2420 ha         1 9MV       0.145000
     50 H18          1.7320     4.0450     0.0890 ha         1 9MV       0.147000
     51 H19          2.9090     2.2540    -1.1030 ha         1 9MV       0.160000
     52 H20          5.2240     0.9900    -1.5810 ha         1 9MV       0.105000
     53 H21          6.7790     0.5470     0.2730 ha         1 9MV       0.148500
     54 C13          2.9690    -0.3760    -2.2460 c3         1 9MV       0.160300
@<TRIPOS>BOND
     1     1     2 1   
     2     1     5 1   
     3     1    17 1   
     4     1    21 1   
     5     2     3 ar  
     6     2    28 ar  
     7     3    16 1   
     8     3    31 ar  
     9     4     8 2   
    10     4    22 1   
    11     4    27 1   
    12     5     6 1   
    13     5    34 1   
    14     5    35 1   
    15     6    19 1   
    16     6    38 1   
    17     6    39 1   
    18     7     9 ar  
    19     7    12 1   
    20     7    33 ar  
    21     8    25 1   
    22     8    40 1   
    23     9    14 ar  
    24     9    41 1   
    25    10    28 ar  
    26    10    29 1   
    27    10    30 ar  
    28    11    12 1   
    29    12    13 1   
    30    14    15 ar  
    31    14    42 1   
    32    15    32 ar  
    33    15    54 1   
    34    16    17 1   
    35    16    54 1   
    36    17    18 2   
    37    19    20 1   
    38    19    22 1   
    39    20    21 1   
    40    20    43 1   
    41    20    44 1   
    42    21    45 1   
    43    21    46 1   
    44    22    23 2   
    45    22    24 2   
    46    25    26 2   
    47    25    47 1   
    48    26    27 1   
    49    26    48 1   
    50    28    49 1   
    51    30    31 ar  
    52    30    50 1   
    53    31    51 1   
    54    32    33 ar  
    55    32    52 1   
    56    33    53 1   
    57    36    54 1   
    58    37    54 1   
@<TRIPOS>SUBSTRUCTURE
     1 9MV         1 TEMP              0 ****  ****    0 ROOT
