@<TRIPOS>MOLECULE
9MW
  113   115     1     0     0
SMALL
No Charge or Current Charge


@<TRIPOS>ATOM
      1 CAB         -8.4330    -4.5650     1.4350 c2         1 9MW      -0.326000
      2 CAO         -8.0310    -3.2880     1.5300 c2         1 9MW      -0.210200
      3 CBD         -7.4780    -2.6330     2.7800 c3         1 9MW      -0.000900
      4 CBS         -6.2390    -1.7930     2.4950 ca         1 9MW      -0.066300
      5 CAT         -6.2190    -0.4170     2.7960 ca         1 9MW      -0.107500
      6 CAV         -5.0780     0.3540     2.5190 ca         1 9MW      -0.095500
      7 CAU         -5.1000    -2.3870     1.9190 ca         1 9MW      -0.107500
      8 CAW         -3.9620    -1.6140     1.6330 ca         1 9MW      -0.095500
      9 CBU         -3.9440    -0.2370     1.9260 ca         1 9MW      -0.090300
     10 CBH         -2.7190     0.6110     1.5800 c3         1 9MW      -0.017100
     11 CBR         -4.1090     1.9310    -0.0850 c          1 9MW       0.573100
     12 OAL         -4.3320     3.0510     0.3590 o          1 9MW      -0.619100
     13 N           -5.0410     1.2500    -0.8390 ns         1 9MW      -0.476900
     14 CA          -6.4270     1.6930    -1.1060 c3         1 9MW       0.029700
     15 CB          -6.5600     2.4110    -2.4850 c3         1 9MW      -0.062700
     16 CG1         -5.8090     3.7640    -2.5230 c3         1 9MW      -0.087600
     17 CG2         -6.1480     1.5150    -3.6800 c3         1 9MW      -0.087600
     18 C           -7.3990     0.4830    -0.9810 c          1 9MW       0.592100
     19 O           -7.0300    -0.6830    -1.0590 o          1 9MW      -0.599100
     20 NBJ         -8.7200     0.8210    -0.7690 ns         1 9MW      -0.502900
     21 CBB         -9.8090    -0.1320    -0.5710 c3         1 9MW       0.129200
     22 CAN        -10.2470    -0.1010     0.8750 c2         1 9MW      -0.247200
     23 CAA        -10.9030     0.9100     1.4690 c2         1 9MW      -0.304000
     24 OAM         -2.6140     0.0550    -0.7960 oh         1 9MW      -0.651000
     25 CBF         -1.5570     2.1450    -0.1570 c3         1 9MW      -0.103400
     26 CBC         -0.1300     1.5510    -0.0000 c3         1 9MW      -0.077400
     27 CBE          0.9830     2.5530    -0.3800 c3         1 9MW       0.164800
     28 NCA          2.3530     2.0460    -0.1380 n3         1 9MW      -0.460600
     29 NBM          2.6490     0.8610    -0.8900 ns         1 9MW      -0.387300
     30 CBQ          3.1790    -0.2870    -0.2990 c          1 9MW       0.607100
     31 CCC         -2.7450     1.1700     0.1250 c3         1 9MW       0.112000
     32 OAK          3.1920    -0.4560     0.9180 o          1 9MW      -0.570100
     33 CBZ          3.8180    -1.3010    -1.2960 c3         1 9MW       0.049700
     34 CCB          2.8170    -2.3910    -1.8350 c3         1 9MW      -0.045000
     35 CAG          1.6180    -1.7170    -2.5570 c3         1 9MW      -0.088433
     36 CAH          3.5350    -3.3090    -2.8650 c3         1 9MW      -0.088433
     37 CAF          2.2690    -3.2740    -0.6790 c3         1 9MW      -0.088433
     38 NBK          5.0080    -1.9060    -0.6510 ns         1 9MW      -0.487900
     39 CBO          6.2400    -2.0280    -1.2260 c          1 9MW       0.639100
     40 OAI          6.5250    -1.6850    -2.3620 o          1 9MW      -0.553000
     41 OBN          7.0920    -2.5860    -0.3230 os         1 9MW      -0.450100
     42 CAC          8.4540    -2.7980    -0.7350 c3         1 9MW       0.168900
     43 CBG          3.4220     3.0650    -0.2920 c3         1 9MW       0.197100
     44 CBT          4.8180     2.4970    -0.0360 ca         1 9MW      -0.090300
     45 CAX          5.6590     2.1610    -1.1140 ca         1 9MW      -0.088000
     46 CAZ          6.9090     1.5630    -0.8810 ca         1 9MW      -0.095000
     47 CAY          5.2500     2.2380     1.2770 ca         1 9MW      -0.088000
     48 CBA          6.5000     1.6400     1.5090 ca         1 9MW      -0.095000
     49 CBW          7.3540     1.2830     0.4350 cp         1 9MW      -0.043000
     50 CBV          8.6740     0.6210     0.6800 cp         1 9MW       0.008000
     51 CAR          9.7910     0.8380    -0.1620 ca         1 9MW      -0.154500
     52 CAP         11.0080     0.1900     0.1000 ca         1 9MW       0.328400
     53 NBI         11.1830    -0.6580     1.1380 nb         1 9MW      -0.666000
     54 CAQ         10.1260    -0.8770     1.9530 ca         1 9MW       0.328400
     55 CAS          8.8750    -0.2670     1.7630 ca         1 9MW      -0.154500
     56 HAR          9.7260     1.5150    -1.0090 ha         1 9MW       0.127500
     57 HAP         11.8730     0.3550    -0.5420 h4         1 9MW       0.018600
     58 HAQ         10.2860    -1.5670     2.7800 h4         1 9MW       0.018600
     59 HAS          8.0660    -0.5030     2.4470 ha         1 9MW       0.127500
     60 HBA          6.8080     1.4520     2.5340 ha         1 9MW       0.120500
     61 HAZ          7.5240     1.2890    -1.7340 ha         1 9MW       0.120500
     62 HAY          4.6050     2.4810     2.1180 ha         1 9MW       0.119500
     63 HAX          5.3350     2.3410    -2.1370 ha         1 9MW       0.119500
     64 HBG1         3.3910     3.4870    -1.3060 h1         1 9MW       0.047200
     65 HBG2         3.2470     3.8960     0.4050 h1         1 9MW       0.047200
     66 HBM          2.6820     0.9130    -1.9030 hn         1 9MW       0.301500
     67 HBE1         0.8690     2.8280    -1.4380 h1         1 9MW       0.035700
     68 HBE2         0.8310     3.4670     0.2090 h1         1 9MW       0.035700
     69 HBZ          4.1660    -0.7070    -2.1510 h1         1 9MW       0.080700
     70 HBK          4.9410    -2.2020     0.3140 hn         1 9MW       0.343500
     71 HAG1         1.9640    -1.0400    -3.3480 hc         1 9MW       0.040033
     72 HAG2         0.9670    -2.4680    -3.0200 hc         1 9MW       0.040033
     73 HAG3         1.0010    -1.1430    -1.8570 hc         1 9MW       0.040033
     74 HAH1         4.3420    -3.8860    -2.3960 hc         1 9MW       0.040033
     75 HAH2         2.8350    -4.0290    -3.3060 hc         1 9MW       0.040033
     76 HAH3         3.9690    -2.7190    -3.6810 hc         1 9MW       0.040033
     77 HAF1         1.7130    -2.6760     0.0520 hc         1 9MW       0.040033
     78 HAF2         1.5850    -4.0400    -1.0660 hc         1 9MW       0.040033
     79 HAF3         3.0800    -3.7910    -0.1510 hc         1 9MW       0.040033
     80 HAC1         9.0380    -3.2330     0.0860 h1         1 9MW       0.048367
     81 HAC2         8.5000    -3.4860    -1.5890 h1         1 9MW       0.048367
     82 HAC3         8.9270    -1.8520    -1.0250 h1         1 9MW       0.048367
     83 HBC1         0.0310     1.2400     1.0380 hc         1 9MW       0.063700
     84 HBC2        -0.0330     0.6540    -0.6220 hc         1 9MW       0.063700
     85 HBF1        -1.6410     3.0090     0.5150 hc         1 9MW       0.056700
     86 HBF2        -1.6630     2.5430    -1.1740 hc         1 9MW       0.056700
     87 HBH1        -2.6400     1.4500     2.2820 hc         1 9MW       0.068200
     88 HBH2        -1.8130     0.0110     1.7270 hc         1 9MW       0.068200
     89 HAM         -2.2820     0.4130    -1.6480 ho         1 9MW       0.445000
     90 HAW         -3.0960    -2.0840     1.1720 ha         1 9MW       0.116500
     91 HAV         -5.0820     1.4160     2.7520 ha         1 9MW       0.116500
     92 HAU         -5.1020    -3.4480     1.6810 ha         1 9MW       0.109500
     93 HAT         -7.0900     0.0580     3.2410 ha         1 9MW       0.109500
     94 HBD1        -8.2590    -2.0080     3.2300 hc         1 9MW       0.048700
     95 HBD2        -7.2370    -3.3940     3.5330 hc         1 9MW       0.048700
     96 HAO1        -8.0690    -2.6290     0.6600 ha         1 9MW       0.183000
     97 HAB1        -8.8140    -4.9740     0.4980 ha         1 9MW       0.160000
     98 HAB2        -8.3970    -5.2460     2.2870 ha         1 9MW       0.160000
     99 H           -4.7700     0.3100    -1.1120 hn         1 9MW       0.350500
    100 HA          -6.7230     2.3980    -0.3180 h1         1 9MW       0.082700
    101 HB          -7.6220     2.6500    -2.6210 hc         1 9MW       0.045700
    102 HG11        -6.1190     4.4030    -1.6880 hc         1 9MW       0.038867
    103 HG12        -4.7250     3.6160    -2.4630 hc         1 9MW       0.038867
    104 HG13        -6.0260     4.2990    -3.4550 hc         1 9MW       0.038867
    105 HG21        -6.7340     0.5890    -3.7000 hc         1 9MW       0.038867
    106 HG22        -6.3190     2.0370    -4.6290 hc         1 9MW       0.038867
    107 HG23        -5.0850     1.2490    -3.6280 hc         1 9MW       0.038867
    108 HBJ         -8.9350     1.8080    -0.7070 hn         1 9MW       0.314500
    109 HBB1       -10.6470     0.1490    -1.2240 h1         1 9MW       0.062700
    110 HBB2        -9.4900    -1.1440    -0.8530 h1         1 9MW       0.062700
    111 HAN1        -9.9860    -0.9980     1.4390 ha         1 9MW       0.179000
    112 HAA1       -11.1770     1.8170     0.9270 ha         1 9MW       0.164000
    113 HAA2       -11.1890     0.8650     2.5220 ha         1 9MW       0.164000
@<TRIPOS>BOND
     1     1     2 2   
     2     1    97 1   
     3     1    98 1   
     4     2     3 1   
     5     2    96 1   
     6     3     4 1   
     7     3    94 1   
     8     3    95 1   
     9     4     5 ar  
    10     4     7 ar  
    11     5     6 ar  
    12     5    93 1   
    13     6     9 ar  
    14     6    91 1   
    15     7     8 ar  
    16     7    92 1   
    17     8     9 ar  
    18     8    90 1   
    19     9    10 1   
    20    10    31 1   
    21    10    87 1   
    22    10    88 1   
    23    11    12 2   
    24    11    13 1   
    25    11    31 1   
    26    13    14 1   
    27    13    99 1   
    28    14    15 1   
    29    14    18 1   
    30    14   100 1   
    31    15    16 1   
    32    15    17 1   
    33    15   101 1   
    34    16   102 1   
    35    16   103 1   
    36    16   104 1   
    37    17   105 1   
    38    17   106 1   
    39    17   107 1   
    40    18    19 2   
    41    18    20 1   
    42    20    21 1   
    43    20   108 1   
    44    21    22 1   
    45    21   109 1   
    46    21   110 1   
    47    22    23 2   
    48    22   111 1   
    49    23   112 1   
    50    23   113 1   
    51    24    31 1   
    52    24    89 1   
    53    25    26 1   
    54    25    31 1   
    55    25    85 1   
    56    25    86 1   
    57    26    27 1   
    58    26    83 1   
    59    26    84 1   
    60    27    28 1   
    61    27    67 1   
    62    27    68 1   
    63    28    29 1   
    64    28    43 1   
    65    29    30 1   
    66    29    66 1   
    67    30    32 2   
    68    30    33 1   
    69    33    34 1   
    70    33    38 1   
    71    33    69 1   
    72    34    35 1   
    73    34    36 1   
    74    34    37 1   
    75    35    71 1   
    76    35    72 1   
    77    35    73 1   
    78    36    74 1   
    79    36    75 1   
    80    36    76 1   
    81    37    77 1   
    82    37    78 1   
    83    37    79 1   
    84    38    39 1   
    85    38    70 1   
    86    39    40 2   
    87    39    41 1   
    88    41    42 1   
    89    42    80 1   
    90    42    81 1   
    91    42    82 1   
    92    43    44 1   
    93    43    64 1   
    94    43    65 1   
    95    44    45 ar  
    96    44    47 ar  
    97    45    46 ar  
    98    45    63 1   
    99    46    49 ar  
   100    46    61 1   
   101    47    48 ar  
   102    47    62 1   
   103    48    49 ar  
   104    48    60 1   
   105    49    50 1   
   106    50    51 ar  
   107    50    55 ar  
   108    51    52 ar  
   109    51    56 1   
   110    52    53 ar  
   111    52    57 1   
   112    53    54 ar  
   113    54    55 ar  
   114    54    58 1   
   115    55    59 1   
@<TRIPOS>SUBSTRUCTURE
     1 9MW         1 TEMP              0 ****  ****    0 ROOT
