@<TRIPOS>MOLECULE
9MW
  113   115     1     0     0
SMALL
abcg2


@<TRIPOS>ATOM
      1 CAB         -7.3710    -4.7640     1.0830 c2         1 9MW      -0.326000
      2 CAO         -7.2820    -3.4500     1.2520 c2         1 9MW      -0.210200
      3 CBD         -6.8770    -2.7790     2.5300 c3         1 9MW      -0.000900
      4 CBS         -5.7280    -1.8280     2.3150 ca         1 9MW      -0.066300
      5 CAT         -5.8560    -0.4680     2.5660 ca         1 9MW      -0.107500
      6 CAV         -4.8070     0.4070     2.3180 ca         1 9MW      -0.095500
      7 CAU         -4.5080    -2.2930     1.8290 ca         1 9MW      -0.107500
      8 CAW         -3.4620    -1.4200     1.5780 ca         1 9MW      -0.095500
      9 CBU         -3.5990    -0.0520     1.8060 ca         1 9MW      -0.090300
     10 CBH         -2.4870     0.8980     1.4610 c3         1 9MW      -0.017100
     11 CBR         -3.8900     2.0840    -0.1980 c          1 9MW       0.573100
     12 OAL         -4.1090     3.1660     0.3300 o          1 9MW      -0.619100
     13 N           -4.7810     1.4160    -0.9410 ns         1 9MW      -0.476900
     14 CA          -6.1600     1.8120    -1.0740 c3         1 9MW       0.029700
     15 CB          -6.4630     2.4830    -2.4340 c3         1 9MW      -0.062700
     16 CG1         -5.6570     3.7670    -2.5960 c3         1 9MW      -0.087600
     17 CG2         -6.2310     1.5480    -3.6150 c3         1 9MW      -0.087600
     18 C           -7.0380     0.5770    -0.8820 c          1 9MW       0.592100
     19 O           -6.6220    -0.5480    -1.1110 o          1 9MW      -0.599100
     20 NBJ         -8.2970     0.8520    -0.5060 ns         1 9MW      -0.502900
     21 CBB         -9.3350    -0.1390    -0.3230 c3         1 9MW       0.129200
     22 CAN         -9.7780    -0.2200     1.1050 c2         1 9MW      -0.247200
     23 CAA        -11.0360    -0.0850     1.5060 c2         1 9MW      -0.304000
     24 OAM         -2.4180     0.2360    -0.8170 oh         1 9MW      -0.651000
     25 CBF         -1.4100     2.3810    -0.2980 c3         1 9MW      -0.103400
     26 CBC         -0.0160     1.8550     0.0190 c3         1 9MW      -0.077400
     27 CBE          1.0710     2.7270    -0.5860 c3         1 9MW       0.164800
     28 NCA          2.3930     2.1810    -0.3210 n3         1 9MW      -0.460600
     29 NBM          2.6060     1.0020    -1.0040 ns         1 9MW      -0.387300
     30 CBQ          2.9290    -0.1370    -0.3580 c          1 9MW       0.607100
     31 CCC         -2.5350     1.3810    -0.0020 c3         1 9MW       0.112000
     32 OAK          2.8910    -0.2720     0.8490 o          1 9MW      -0.570100
     33 CBZ          3.3730    -1.2730    -1.2800 c3         1 9MW       0.049700
     34 CCB          2.2530    -2.3060    -1.5790 c3         1 9MW      -0.045000
     35 CAG          1.0860    -1.5950    -2.2670 c3         1 9MW      -0.088433
     36 CAH          2.8220    -3.3540    -2.5390 c3         1 9MW      -0.088433
     37 CAF          1.7580    -2.9990    -0.3110 c3         1 9MW      -0.088433
     38 NBK          4.5410    -1.8660    -0.6770 ns         1 9MW      -0.487900
     39 CBO          5.7320    -1.9380    -1.3050 c          1 9MW       0.639100
     40 OAI          5.9370    -1.6460    -2.4650 o          1 9MW      -0.553000
     41 OBN          6.6710    -2.4050    -0.4780 os         1 9MW      -0.450100
     42 CAC          7.9720    -2.5840    -1.0220 c3         1 9MW       0.168900
     43 CBG          3.4890     3.1120    -0.5750 c3         1 9MW       0.197100
     44 CBT          4.7940     2.4670    -0.2040 ca         1 9MW      -0.090300
     45 CAX          5.6880     2.0460    -1.1810 ca         1 9MW      -0.088000
     46 CAZ          6.8490     1.3680    -0.8400 ca         1 9MW      -0.095000
     47 CAY          5.0870     2.1940     1.1290 ca         1 9MW      -0.088000
     48 CBA          6.2410     1.5140     1.4740 ca         1 9MW      -0.095000
     49 CBW          7.1370     1.0850     0.4930 cp         1 9MW      -0.043000
     50 CBV          8.3570     0.3460     0.8610 cp         1 9MW       0.008000
     51 CAR          9.5600     0.5390     0.1860 ca         1 9MW      -0.154500
     52 CAP         10.6760    -0.1900     0.5650 ca         1 9MW       0.328400
     53 NBI         10.6750    -1.0800     1.5510 nb         1 9MW      -0.666000
     54 CAQ          9.5280    -1.2640     2.1970 ca         1 9MW       0.328400
     55 CAS          8.3580    -0.5870     1.8960 ca         1 9MW      -0.154500
     56 HAR          9.6420     1.2600    -0.6170 ha         1 9MW       0.127500
     57 HAP         11.6170    -0.0400     0.0470 h4         1 9MW       0.018600
     58 HAQ          9.5340    -1.9960     2.9970 h4         1 9MW       0.018600
     59 HAS          7.4560    -0.8080     2.4520 ha         1 9MW       0.127500
     60 HBA          6.4530     1.3250     2.5190 ha         1 9MW       0.120500
     61 HAZ          7.5150     1.0300    -1.6240 ha         1 9MW       0.120500
     62 HAY          4.4000     2.5100     1.9040 ha         1 9MW       0.119500
     63 HAX          5.4700     2.2330    -2.2250 ha         1 9MW       0.119500
     64 HBG1         3.5150     3.4400    -1.6250 h1         1 9MW       0.047200
     65 HBG2         3.3090     4.0010     0.0340 h1         1 9MW       0.047200
     66 HBM          2.7210     1.0490    -2.0110 hn         1 9MW       0.301500
     67 HBE1         0.8980     2.8610    -1.6660 h1         1 9MW       0.035700
     68 HBE2         1.0370     3.7230    -0.1400 h1         1 9MW       0.035700
     69 HBZ          3.6850    -0.8560    -2.2400 h1         1 9MW       0.080700
     70 HBK          4.5110    -2.0460     0.3150 hn         1 9MW       0.343500
     71 HAG1         1.4200    -1.0330    -3.1430 hc         1 9MW       0.040033
     72 HAG2         0.3500    -2.3250    -2.6090 hc         1 9MW       0.040033
     73 HAG3         0.5640    -0.9060    -1.6020 hc         1 9MW       0.040033
     74 HAH1         3.6450    -3.9120    -2.0910 hc         1 9MW       0.040033
     75 HAH2         2.0460    -4.0750    -2.8050 hc         1 9MW       0.040033
     76 HAH3         3.1840    -2.8970    -3.4620 hc         1 9MW       0.040033
     77 HAF1         1.2560    -2.3100     0.3690 hc         1 9MW       0.040033
     78 HAF2         1.0400    -3.7790    -0.5740 hc         1 9MW       0.040033
     79 HAF3         2.5720    -3.4800     0.2330 hc         1 9MW       0.040033
     80 HAC1         8.5830    -2.9690    -0.2100 h1         1 9MW       0.048367
     81 HAC2         7.9710    -3.3030    -1.8420 h1         1 9MW       0.048367
     82 HAC3         8.3990    -1.6450    -1.3700 h1         1 9MW       0.048367
     83 HBC1         0.1370     1.8080     1.0990 hc         1 9MW       0.063700
     84 HBC2         0.0910     0.8340    -0.3540 hc         1 9MW       0.063700
     85 HBF1        -1.5940     3.3020     0.2580 hc         1 9MW       0.056700
     86 HBF2        -1.4680     2.6540    -1.3590 hc         1 9MW       0.056700
     87 HBH1        -2.5170     1.7750     2.1100 hc         1 9MW       0.068200
     88 HBH2        -1.5220     0.4130     1.6270 hc         1 9MW       0.068200
     89 HAM         -2.1900     0.5100    -1.7120 ho         1 9MW       0.445000
     90 HAW         -2.5250    -1.8070     1.1960 ha         1 9MW       0.116500
     91 HAV         -4.9400     1.4640     2.5190 ha         1 9MW       0.116500
     92 HAU         -4.3770    -3.3520     1.6340 ha         1 9MW       0.109500
     93 HAT         -6.7890    -0.0780     2.9570 ha         1 9MW       0.109500
     94 HBD1        -7.7270    -2.2230     2.9380 hc         1 9MW       0.048700
     95 HBD2        -6.6200    -3.5360     3.2760 hc         1 9MW       0.048700
     96 HAO1        -7.4890    -2.7870     0.4170 ha         1 9MW       0.183000
     97 HAB1        -7.6690    -5.1940     0.1350 ha         1 9MW       0.160000
     98 HAB2        -7.1510    -5.4580     1.8860 ha         1 9MW       0.160000
     99 H           -4.5470     0.4720    -1.2100 hn         1 9MW       0.350500
    100 HA          -6.3800     2.5380    -0.2870 h1         1 9MW       0.082700
    101 HB          -7.5230     2.7570    -2.4140 hc         1 9MW       0.045700
    102 HG11        -5.7870     4.4360    -1.7460 hc         1 9MW       0.038867
    103 HG12        -4.5900     3.5590    -2.6990 hc         1 9MW       0.038867
    104 HG13        -5.9760     4.2970    -3.4940 hc         1 9MW       0.038867
    105 HG21        -6.9010     0.6880    -3.6110 hc         1 9MW       0.038867
    106 HG22        -6.3950     2.0820    -4.5520 hc         1 9MW       0.038867
    107 HG23        -5.2050     1.1760    -3.6300 hc         1 9MW       0.038867
    108 HBJ         -8.5370     1.8070    -0.2930 hn         1 9MW       0.314500
    109 HBB1       -10.1850     0.0930    -0.9700 h1         1 9MW       0.062700
    110 HBB2        -8.9380    -1.1000    -0.6490 h1         1 9MW       0.062700
    111 HAN1        -8.9960    -0.4010     1.8360 ha         1 9MW       0.179000
    112 HAA1       -11.8400     0.1050     0.8040 ha         1 9MW       0.164000
    113 HAA2       -11.3080    -0.1660     2.5500 ha         1 9MW       0.164000
@<TRIPOS>BOND
     1     1     2 2   
     2     1    97 1   
     3     1    98 1   
     4     2     3 1   
     5     2    96 1   
     6     3     4 1   
     7     3    94 1   
     8     3    95 1   
     9     4     5 ar  
    10     4     7 ar  
    11     5     6 ar  
    12     5    93 1   
    13     6     9 ar  
    14     6    91 1   
    15     7     8 ar  
    16     7    92 1   
    17     8     9 ar  
    18     8    90 1   
    19     9    10 1   
    20    10    31 1   
    21    10    87 1   
    22    10    88 1   
    23    11    12 2   
    24    11    13 1   
    25    11    31 1   
    26    13    14 1   
    27    13    99 1   
    28    14    15 1   
    29    14    18 1   
    30    14   100 1   
    31    15    16 1   
    32    15    17 1   
    33    15   101 1   
    34    16   102 1   
    35    16   103 1   
    36    16   104 1   
    37    17   105 1   
    38    17   106 1   
    39    17   107 1   
    40    18    19 2   
    41    18    20 1   
    42    20    21 1   
    43    20   108 1   
    44    21    22 1   
    45    21   109 1   
    46    21   110 1   
    47    22    23 2   
    48    22   111 1   
    49    23   112 1   
    50    23   113 1   
    51    24    31 1   
    52    24    89 1   
    53    25    26 1   
    54    25    31 1   
    55    25    85 1   
    56    25    86 1   
    57    26    27 1   
    58    26    83 1   
    59    26    84 1   
    60    27    28 1   
    61    27    67 1   
    62    27    68 1   
    63    28    29 1   
    64    28    43 1   
    65    29    30 1   
    66    29    66 1   
    67    30    32 2   
    68    30    33 1   
    69    33    34 1   
    70    33    38 1   
    71    33    69 1   
    72    34    35 1   
    73    34    36 1   
    74    34    37 1   
    75    35    71 1   
    76    35    72 1   
    77    35    73 1   
    78    36    74 1   
    79    36    75 1   
    80    36    76 1   
    81    37    77 1   
    82    37    78 1   
    83    37    79 1   
    84    38    39 1   
    85    38    70 1   
    86    39    40 2   
    87    39    41 1   
    88    41    42 1   
    89    42    80 1   
    90    42    81 1   
    91    42    82 1   
    92    43    44 1   
    93    43    64 1   
    94    43    65 1   
    95    44    45 ar  
    96    44    47 ar  
    97    45    46 ar  
    98    45    63 1   
    99    46    49 ar  
   100    46    61 1   
   101    47    48 ar  
   102    47    62 1   
   103    48    49 ar  
   104    48    60 1   
   105    49    50 1   
   106    50    51 ar  
   107    50    55 ar  
   108    51    52 ar  
   109    51    56 1   
   110    52    53 ar  
   111    52    57 1   
   112    53    54 ar  
   113    54    55 ar  
   114    54    58 1   
   115    55    59 1   
@<TRIPOS>SUBSTRUCTURE
     1 9MW         1 TEMP              0 ****  ****    0 ROOT
