@<TRIPOS>MOLECULE
9MX
   78    81     1     0     0
SMALL
No Charge or Current Charge


@<TRIPOS>ATOM
      1 C20         -3.8480    -2.0650     0.2050 c3         1 9MX       0.105000
      2 C27         -5.2620    -1.4450     0.0200 c6         1 9MX      -0.091700
      3 C32         -5.2320    -0.1330    -0.8160 c6         1 9MX       0.220800
      4 C33         -6.2340    -2.4690    -0.6160 c6         1 9MX      -0.070400
      5 N37         -6.5940     0.4440    -1.0140 nh         1 9MX      -0.764600
      6 C38         -7.6300    -1.8360    -0.7930 c6         1 9MX      -0.084400
      7 C40         -7.5510    -0.5250    -1.6110 c6         1 9MX       0.220800
      8 C41         -6.6930     1.7280    -1.3980 c2         1 9MX       0.797100
      9 N43         -5.9640     2.2490    -2.2690 n2         1 9MX      -0.887100
     10 N42         -7.5540     2.3910    -0.6610 nv         1 9MX      -1.064200
     11 N3           0.2620    -1.3350     2.1990 n7         1 9MX      -0.898300
     12 C1           0.2860    -0.0820     1.3810 c3         1 9MX       0.147500
     13 C2           1.2730     1.0300     1.9180 c          1 9MX       0.571100
     14 O6           1.3690     1.1930     3.1300 o          1 9MX      -0.565100
     15 C4          -1.1550     0.4670     1.3160 c3         1 9MX      -0.158400
     16 C8          -2.0020    -0.3520     0.3470 c          1 9MX       0.607100
     17 O15         -1.9000    -0.2360    -0.8660 o          1 9MX      -0.616100
     18 N14         -2.9190    -1.1950     0.9330 ns         1 9MX      -0.493900
     19 O12          2.3020    -2.0470     3.4220 o          1 9MX      -0.552500
     20 O13          0.9900    -3.7080     1.9690 o          1 9MX      -0.552500
     21 C18          2.0930    -2.2530    -0.5280 ca         1 9MX       0.002000
     22 C11          2.5100    -1.8650     0.7630 ca         1 9MX      -0.296500
     23 C19          3.6570    -1.0600     0.9150 ca         1 9MX      -0.015000
     24 C26          4.3650    -0.6200    -0.2150 ca         1 9MX      -0.083000
     25 C35          4.6350    -0.5300    -2.6390 ca         1 9MX      -0.100000
     26 C39          4.2010    -0.8910    -3.9260 ca         1 9MX      -0.108000
     27 C36          3.0690    -1.7090    -4.0820 ca         1 9MX      -0.129000
     28 C31          2.3680    -2.1670    -2.9530 ca         1 9MX      -0.087000
     29 C25          2.7990    -1.8070    -1.6610 ca         1 9MX      -0.072000
     30 C30          3.9370    -0.9850    -1.5050 ca         1 9MX      -0.002000
     31 N5           2.0170     1.8380     1.0020 n          1 9MX      -0.358800
     32 C21          2.8400     3.0160     1.5230 c6         1 9MX      -0.041300
     33 C28          3.6430     3.8190     0.4580 c6         1 9MX      -0.074400
     34 C10          2.8830     4.0360    -0.8590 c6         1 9MX      -0.063700
     35 C16          2.5510     2.6460    -1.4180 c6         1 9MX      -0.077400
     36 C9           1.6650     1.8240    -0.4600 c6         1 9MX       0.096000
     37 C17          3.8190     2.7230     2.7140 c          1 9MX       0.740000
     38 O23          4.4700     1.6870     2.6790 o          1 9MX      -0.719500
     39 O24          3.6310     3.3370     3.7580 o          1 9MX      -0.719500
     40 C29          1.6370     4.9540    -0.7070 c3         1 9MX      -0.082100
     41 H20         -3.4270    -2.3130    -0.7790 h1         1 9MX       0.056200
     42 H20A        -3.9450    -3.0030     0.7680 h1         1 9MX       0.056200
     43 H27         -5.6270    -1.2020     1.0280 hc         1 9MX       0.060700
     44 H32         -4.6020     0.5990    -0.2880 h1         1 9MX       0.060700
     45 H32A        -4.7550    -0.3230    -1.7890 h1         1 9MX       0.060700
     46 H33         -5.8500    -2.7980    -1.5920 hc         1 9MX       0.044200
     47 H33A        -6.3100    -3.3660     0.0140 hc         1 9MX       0.044200
     48 H38         -8.3040    -2.5440    -1.2930 hc         1 9MX       0.044200
     49 H38A        -8.0700    -1.6270     0.1920 hc         1 9MX       0.044200
     50 H40         -8.5580    -0.0850    -1.6500 h1         1 9MX       0.037700
     51 H40A        -7.2580    -0.7500    -2.6470 h1         1 9MX       0.037700
     52 HN43        -6.2470     3.2310    -2.3420 hn         1 9MX       0.374400
     53 HN42        -7.8600     1.7830     0.0850 hn         1 9MX       0.447000
     54 HN4A        -7.1930     3.2770    -0.3380 hn         1 9MX       0.447000
     55 HN3          0.2740    -1.0770     3.1880 hn         1 9MX       0.524000
     56 H1           0.5600    -0.3280     0.3520 h1         1 9MX       0.074700
     57 H4          -1.5910     0.4570     2.3220 hc         1 9MX       0.076200
     58 H4A         -1.1200     1.4960     0.9400 hc         1 9MX       0.076200
     59 HN14        -2.9060    -1.2420     1.9450 hn         1 9MX       0.318500
     60 H19          3.9970    -0.7610     1.9050 ha         1 9MX       0.162000
     61 H26          5.2390     0.0140    -0.0850 ha         1 9MX       0.149000
     62 H35          5.5110     0.1050    -2.5260 ha         1 9MX       0.120000
     63 H39          4.7410    -0.5380    -4.8010 ha         1 9MX       0.104000
     64 H36          2.7330    -1.9880    -5.0780 ha         1 9MX       0.103000
     65 H31          1.4920    -2.7970    -3.0840 ha         1 9MX       0.109000
     66 H21          2.1010     3.7190     1.9320 h1         1 9MX       0.036700
     67 H28          4.5800     3.2860     0.2410 hc         1 9MX       0.054700
     68 H28A         3.9450     4.7880     0.8800 hc         1 9MX       0.054700
     69 H10          3.5530     4.5440    -1.5670 hc         1 9MX       0.030700
     70 H16          3.4850     2.0960    -1.6020 hc         1 9MX       0.040700
     71 H16A         2.0560     2.7350    -2.3950 hc         1 9MX       0.040700
     72 H9           1.6950     0.7940    -0.8330 h1         1 9MX       0.028700
     73 H9A          0.6280     2.1740    -0.5620 h1         1 9MX       0.028700
     74 H29          1.9240     5.9450    -0.3360 hc         1 9MX       0.025367
     75 H29A         1.1350     5.0970    -1.6720 hc         1 9MX       0.025367
     76 H29B         0.8990     4.5420    -0.0090 hc         1 9MX       0.025367
     77 S7           1.5640    -2.3810     2.2050 sy         1 9MX       1.166600
     78 H18          1.2080    -2.8760    -0.6510 ha         1 9MX       0.132000
@<TRIPOS>BOND
     1     1     2 1   
     2     1    18 1   
     3     1    41 1   
     4     1    42 1   
     5     2     3 1   
     6     2     4 1   
     7     2    43 1   
     8     3     5 1   
     9     3    44 1   
    10     3    45 1   
    11     4     6 1   
    12     4    46 1   
    13     4    47 1   
    14     5     7 1   
    15     5     8 1   
    16     6     7 1   
    17     6    48 1   
    18     6    49 1   
    19     7    50 1   
    20     7    51 1   
    21     8     9 2   
    22     8    10 1   
    23     9    52 1   
    24    10    53 1   
    25    10    54 1   
    26    11    12 1   
    27    11    55 1   
    28    11    77 1   
    29    12    13 1   
    30    12    15 1   
    31    12    56 1   
    32    13    14 2   
    33    13    31 1   
    34    15    16 1   
    35    15    57 1   
    36    15    58 1   
    37    16    17 2   
    38    16    18 1   
    39    18    59 1   
    40    19    77 2   
    41    20    77 2   
    42    21    22 ar  
    43    21    29 ar  
    44    21    78 1   
    45    22    23 ar  
    46    22    77 1   
    47    23    24 ar  
    48    23    60 1   
    49    24    30 ar  
    50    24    61 1   
    51    25    26 ar  
    52    25    30 ar  
    53    25    62 1   
    54    26    27 ar  
    55    26    63 1   
    56    27    28 ar  
    57    27    64 1   
    58    28    29 ar  
    59    28    65 1   
    60    29    30 ar  
    61    31    32 1   
    62    31    36 1   
    63    32    33 1   
    64    32    37 1   
    65    32    66 1   
    66    33    34 1   
    67    33    67 1   
    68    33    68 1   
    69    34    35 1   
    70    34    40 1   
    71    34    69 1   
    72    35    36 1   
    73    35    70 1   
    74    35    71 1   
    75    36    72 1   
    76    36    73 1   
    77    37    38 1   
    78    37    39 1   
    79    40    74 1   
    80    40    75 1   
    81    40    76 1   
@<TRIPOS>SUBSTRUCTURE
     1 9MX         1 TEMP              0 ****  ****    0 ROOT
