@<TRIPOS>MOLECULE
9MX
   78    81     1     0     0
SMALL
abcg2


@<TRIPOS>ATOM
      1 C20         -4.2070    -0.9490    -1.3200 c3         1 9MX       0.105000
      2 C27         -5.3950    -1.2230    -0.4080 c6         1 9MX      -0.091700
      3 C32         -6.2880     0.0080    -0.2670 c6         1 9MX       0.220800
      4 C33         -6.2070    -2.4080    -0.9210 c6         1 9MX      -0.070400
      5 N37         -7.4200    -0.2800     0.5880 nh         1 9MX      -0.764600
      6 C38         -7.4260    -2.6440    -0.0400 c6         1 9MX      -0.084400
      7 C40         -8.2500    -1.3750     0.1040 c6         1 9MX       0.220800
      8 C41         -7.9380     0.7380     1.3560 c2         1 9MX       0.797100
      9 N43         -7.4560     1.9250     1.2790 n2         1 9MX      -0.887100
     10 N42         -8.9970     0.3710     2.1650 nv         1 9MX      -1.064200
     11 N3          -0.5970    -0.1840     0.7210 n7         1 9MX      -0.898300
     12 C1          -0.2510     0.9140    -0.1710 c3         1 9MX       0.147500
     13 C2           0.6330     1.8940     0.6160 c          1 9MX       0.571100
     14 O6           0.2300     2.2220     1.7240 o          1 9MX      -0.565100
     15 C4          -1.5160     1.6300    -0.6510 c3         1 9MX      -0.158400
     16 C8          -2.3790     0.6830    -1.4600 c          1 9MX       0.607100
     17 O15         -2.1660     0.4740    -2.6460 o          1 9MX      -0.616100
     18 N14         -3.3690     0.0950    -0.7740 ns         1 9MX      -0.493900
     19 O12         -0.2960    -2.4720     1.5990 o          1 9MX      -0.552500
     20 O13         -0.6600    -2.1280    -0.8650 o          1 9MX      -0.552500
     21 C18          2.2340    -1.9440    -1.0600 ca         1 9MX       0.002000
     22 C11          1.6800    -1.5360     0.1230 ca         1 9MX      -0.296500
     23 C19          2.4580    -0.9620     1.1490 ca         1 9MX      -0.015000
     24 C26          3.8000    -0.8170     0.9650 ca         1 9MX      -0.083000
     25 C35          5.8070    -1.0710    -0.4530 ca         1 9MX      -0.100000
     26 C39          6.3740    -1.4550    -1.6380 ca         1 9MX      -0.108000
     27 C36          5.5820    -2.0220    -2.6590 ca         1 9MX      -0.129000
     28 C31          4.2370    -2.1910    -2.4770 ca         1 9MX      -0.087000
     29 C25          3.6240    -1.8010    -1.2640 ca         1 9MX      -0.072000
     30 C30          4.4200    -1.2350    -0.2340 ca         1 9MX      -0.002000
     31 N5           1.7940     2.3120     0.0860 n          1 9MX      -0.358800
     32 C21          2.6680     3.1910     0.8750 c6         1 9MX      -0.041300
     33 C28          4.1230     2.9900     0.4420 c6         1 9MX      -0.074400
     34 C10          4.3720     3.1280    -1.0570 c6         1 9MX      -0.063700
     35 C16          3.4270     2.1690    -1.7730 c6         1 9MX      -0.077400
     36 C9           1.9850     2.4000    -1.3620 c6         1 9MX       0.096000
     37 C17          2.6380     2.9490     2.4120 c          1 9MX       0.740000
     38 O23          2.8960     1.8010     2.8130 o          1 9MX      -0.719500
     39 O24          2.4720     3.9680     3.1100 o          1 9MX      -0.719500
     40 C29          4.2420     4.5660    -1.5510 c3         1 9MX      -0.082100
     41 H20         -4.5580    -0.6470    -2.3100 h1         1 9MX       0.056200
     42 H20A        -3.6290    -1.8700    -1.4520 h1         1 9MX       0.056200
     43 H27         -5.0140    -1.4790     0.5900 hc         1 9MX       0.060700
     44 H32         -5.7390     0.8430     0.1620 h1         1 9MX       0.060700
     45 H32A        -6.6250     0.3270    -1.2660 h1         1 9MX       0.060700
     46 H33         -6.5350    -2.2040    -1.9470 hc         1 9MX       0.044200
     47 H33A        -5.5850    -3.3050    -0.9620 hc         1 9MX       0.044200
     48 H38         -8.0550    -3.4310    -0.4620 hc         1 9MX       0.044200
     49 H38A        -7.1090    -2.9820     0.9510 hc         1 9MX       0.044200
     50 H40         -9.0850    -1.5500     0.7770 h1         1 9MX       0.037700
     51 H40A        -8.6840    -1.1080    -0.8710 h1         1 9MX       0.037700
     52 HN43        -7.8610     2.5200     1.9920 hn         1 9MX       0.374400
     53 HN42        -8.9470    -0.5460     2.5810 hn         1 9MX       0.447000
     54 HN4A        -9.2490     1.0660     2.8500 hn         1 9MX       0.447000
     55 HN3         -0.6260     0.0500     1.7080 hn         1 9MX       0.524000
     56 H1           0.2620     0.4950    -1.0360 h1         1 9MX       0.074700
     57 H4          -2.0510     2.0250     0.2140 hc         1 9MX       0.076200
     58 H4A         -1.2410     2.4760    -1.2830 hc         1 9MX       0.076200
     59 HN14        -3.3780     0.2160     0.2270 hn         1 9MX       0.318500
     60 H19          2.0030    -0.5890     2.0560 ha         1 9MX       0.162000
     61 H26          4.3930    -0.3460     1.7370 ha         1 9MX       0.149000
     62 H35          6.4140    -0.6340     0.3300 ha         1 9MX       0.120000
     63 H39          7.4360    -1.3240    -1.7980 ha         1 9MX       0.104000
     64 H36          6.0450    -2.3220    -3.5900 ha         1 9MX       0.103000
     65 H31          3.6290    -2.6240    -3.2610 ha         1 9MX       0.109000
     66 H21          2.3650     4.2280     0.6830 h1         1 9MX       0.036700
     67 H28          4.4250     1.9880     0.7570 hc         1 9MX       0.054700
     68 H28A         4.7410     3.7020     0.9970 hc         1 9MX       0.054700
     69 H10          5.3990     2.8020    -1.2540 hc         1 9MX       0.030700
     70 H16          3.7020     1.1370    -1.5370 hc         1 9MX       0.040700
     71 H16A         3.4990     2.2800    -2.8570 hc         1 9MX       0.040700
     72 H9           1.3550     1.6790    -1.8760 h1         1 9MX       0.028700
     73 H9A          1.6490     3.3870    -1.6980 h1         1 9MX       0.028700
     74 H29          4.9620     5.2140    -1.0470 hc         1 9MX       0.025367
     75 H29A         4.4340     4.6320    -2.6230 hc         1 9MX       0.025367
     76 H29B         3.2510     4.9830    -1.3700 hc         1 9MX       0.025367
     77 S7          -0.0630    -1.7000     0.3890 sy         1 9MX       1.166600
     78 H18          1.6260    -2.3700    -1.8480 ha         1 9MX       0.132000
@<TRIPOS>BOND
     1     1     2 1   
     2     1    18 1   
     3     1    41 1   
     4     1    42 1   
     5     2     3 1   
     6     2     4 1   
     7     2    43 1   
     8     3     5 1   
     9     3    44 1   
    10     3    45 1   
    11     4     6 1   
    12     4    46 1   
    13     4    47 1   
    14     5     7 1   
    15     5     8 1   
    16     6     7 1   
    17     6    48 1   
    18     6    49 1   
    19     7    50 1   
    20     7    51 1   
    21     8     9 2   
    22     8    10 1   
    23     9    52 1   
    24    10    53 1   
    25    10    54 1   
    26    11    12 1   
    27    11    55 1   
    28    11    77 1   
    29    12    13 1   
    30    12    15 1   
    31    12    56 1   
    32    13    14 2   
    33    13    31 1   
    34    15    16 1   
    35    15    57 1   
    36    15    58 1   
    37    16    17 2   
    38    16    18 1   
    39    18    59 1   
    40    19    77 2   
    41    20    77 2   
    42    21    22 ar  
    43    21    29 ar  
    44    21    78 1   
    45    22    23 ar  
    46    22    77 1   
    47    23    24 ar  
    48    23    60 1   
    49    24    30 ar  
    50    24    61 1   
    51    25    26 ar  
    52    25    30 ar  
    53    25    62 1   
    54    26    27 ar  
    55    26    63 1   
    56    27    28 ar  
    57    27    64 1   
    58    28    29 ar  
    59    28    65 1   
    60    29    30 ar  
    61    31    32 1   
    62    31    36 1   
    63    32    33 1   
    64    32    37 1   
    65    32    66 1   
    66    33    34 1   
    67    33    67 1   
    68    33    68 1   
    69    34    35 1   
    70    34    40 1   
    71    34    69 1   
    72    35    36 1   
    73    35    70 1   
    74    35    71 1   
    75    36    72 1   
    76    36    73 1   
    77    37    38 1   
    78    37    39 1   
    79    40    74 1   
    80    40    75 1   
    81    40    76 1   
@<TRIPOS>SUBSTRUCTURE
     1 9MX         1 TEMP              0 ****  ****    0 ROOT
