@<TRIPOS>MOLECULE
9MY
   72    76     1     0     0
SMALL
abcg2


@<TRIPOS>ATOM
      1 N1           1.4220     0.3080     0.1540 na         1 9MY      -0.166600
      2 N3           3.1320    -0.9340    -0.5650 nc         1 9MY      -0.529100
      3 C4           2.0780     1.0700    -0.7900 ca         1 9MY      -0.056200
      4 C5           3.1410     0.2660    -1.2250 ca         1 9MY       0.063400
      5 C6          -0.9670     0.8370     0.0810 c          1 9MY       0.592100
      6 C7           0.2750     0.6840     0.9660 c3         1 9MY       0.015300
      7 C8           1.8870     2.3590    -1.2840 ca         1 9MY      -0.110000
      8 C10          4.0420     0.7240    -2.1870 ca         1 9MY      -0.073000
      9 C13          3.8490     1.9930    -2.6700 ca         1 9MY       0.112000
     10 C15          0.4170    -2.6100     0.8510 ca         1 9MY      -0.143300
     11 C17         -3.2440     0.0240    -0.3510 c6         1 9MY       0.113700
     12 C21         -5.6060    -1.3350    -1.4820 c6         1 9MY       0.170300
     13 C22         -4.2970    -0.6270     0.5410 c6         1 9MY      -0.089900
     14 C24         -5.6650    -0.6450    -0.1280 c6         1 9MY      -0.090900
     15 C28         -0.5380    -2.8240     1.8390 ca         1 9MY      -0.093000
     16 O20          2.7930    -2.8970     1.1620 os         1 9MY      -0.410000
     17 C9           1.7470    -1.9720     1.2000 c3         1 9MY       0.211300
     18 C2           2.1170    -0.8700     0.2430 cd         1 9MY       0.410800
     19 F19          4.6780     2.5010    -3.5910 f          1 9MY      -0.165000
     20 C12          2.7940     2.7930    -2.2200 ca         1 9MY       0.142000
     21 F18          2.6760     4.0240    -2.7370 f          1 9MY      -0.163000
     22 C16          0.5120     1.9420     1.8120 c6         1 9MY      -0.070700
     23 C29         -0.6850     2.1670     2.7400 c6         1 9MY      -0.073400
     24 C35         -0.4820     3.3850     3.6330 c6         1 9MY      -0.072900
     25 C37          0.8060     3.2710     4.4400 c6         1 9MY      -0.076400
     26 C34          2.0020     3.0450     3.5220 c6         1 9MY      -0.072900
     27 C30          1.8000     1.8260     2.6270 c6         1 9MY      -0.073400
     28 N11         -1.9590    -0.0210     0.3260 ns         1 9MY      -0.495900
     29 O26         -6.9030    -1.3060    -2.0410 oh         1 9MY      -0.658000
     30 C25         -4.5750    -0.6530    -2.3750 c6         1 9MY      -0.090900
     31 C23         -3.1980    -0.6510    -1.7210 c6         1 9MY      -0.089900
     32 C27          0.1690    -3.0530    -0.4450 ca         1 9MY      -0.093000
     33 C33         -1.0270    -3.6850    -0.7490 ca         1 9MY      -0.118000
     34 C36         -1.9840    -3.8860     0.2390 ca         1 9MY      -0.101000
     35 C32         -1.7390    -3.4560     1.5360 ca         1 9MY      -0.118000
     36 H1           0.1190    -0.1330     1.6710 h1         1 9MY       0.066700
     37 H2           1.0720     2.9980    -0.9810 ha         1 9MY       0.159000
     38 H3           4.8620     0.1110    -2.5380 ha         1 9MY       0.150000
     39 H4          -3.5080     1.0770    -0.4900 h1         1 9MY       0.075700
     40 H6          -3.9880    -1.6540     0.7670 hc         1 9MY       0.049700
     41 H7          -4.3540    -0.0970     1.4950 hc         1 9MY       0.049700
     42 H8          -6.0240     0.3810    -0.2630 hc         1 9MY       0.054450
     43 H9          -6.3830    -1.1520     0.5210 hc         1 9MY       0.054450
     44 H10         -0.3430    -2.4970     2.8550 ha         1 9MY       0.125000
     45 H11          3.6320    -4.4650     2.1200 h1         1 9MY       0.035700
     46 H12          2.6740    -3.4110     3.1760 h1         1 9MY       0.035700
     47 H13          1.8630    -4.5360     2.0690 h1         1 9MY       0.035700
     48 H14          1.6640    -1.5420     2.2140 h1         1 9MY       0.043700
     49 H15          0.5990     2.8130     1.1540 hc         1 9MY       0.078700
     50 H16         -1.6070     2.2810     2.1660 hc         1 9MY       0.042450
     51 H17         -0.8160     1.2780     3.3700 hc         1 9MY       0.042450
     52 H18         -0.4470     4.2890     3.0140 hc         1 9MY       0.044950
     53 H19         -1.3410     3.4980     4.2990 hc         1 9MY       0.044950
     54 H20          0.9550     4.1680     5.0450 hc         1 9MY       0.040200
     55 H21          0.7200     2.4320     5.1390 hc         1 9MY       0.040200
     56 H22          2.1470     3.9300     2.8940 hc         1 9MY       0.044950
     57 H23          2.9170     2.9250     4.1070 hc         1 9MY       0.044950
     58 H24          1.7570     0.9210     3.2460 hc         1 9MY       0.042450
     59 H25          2.6640     1.7150     1.9680 hc         1 9MY       0.042450
     60 H26         -1.8170    -0.7580     1.0000 hn         1 9MY       0.319500
     61 H27         -6.8760    -1.7640    -2.8870 ho         1 9MY       0.444000
     62 H28         -4.5200    -1.1580    -3.3430 hc         1 9MY       0.054450
     63 H29         -4.8990     0.3760    -2.5690 hc         1 9MY       0.054450
     64 H30         -2.4780    -0.1410    -2.3630 hc         1 9MY       0.049700
     65 H31         -2.8400    -1.6780    -1.5970 hc         1 9MY       0.049700
     66 H32          0.9090    -2.9000    -1.2220 ha         1 9MY       0.125000
     67 H33         -1.2160    -4.0190    -1.7610 ha         1 9MY       0.119000
     68 H34         -2.9170    -4.3760    -0.0030 ha         1 9MY       0.117000
     69 H35         -2.4770    -3.6130     2.3110 ha         1 9MY       0.119000
     70 O14         -1.0280     1.7200    -0.7610 o          1 9MY      -0.593100
     71 C31          2.7230    -3.8690     2.1810 c3         1 9MY       0.139900
     72 H5          -5.2820    -2.3760    -1.3200 h1         1 9MY       0.024700
@<TRIPOS>BOND
     1     1     3 1   
     2     1     6 1   
     3     1    18 1   
     4     2     4 1   
     5     2    18 2   
     6     3     4 ar  
     7     3     7 ar  
     8     4     8 ar  
     9     5     6 1   
    10     5    28 1   
    11     5    70 2   
    12     6    22 1   
    13     6    36 1   
    14     7    20 ar  
    15     7    37 1   
    16     8     9 ar  
    17     8    38 1   
    18     9    19 1   
    19     9    20 ar  
    20    10    15 ar  
    21    10    17 1   
    22    10    32 ar  
    23    11    13 1   
    24    11    28 1   
    25    11    31 1   
    26    11    39 1   
    27    12    14 1   
    28    12    29 1   
    29    12    30 1   
    30    12    72 1   
    31    13    14 1   
    32    13    40 1   
    33    13    41 1   
    34    14    42 1   
    35    14    43 1   
    36    15    35 ar  
    37    15    44 1   
    38    16    17 1   
    39    16    71 1   
    40    17    18 1   
    41    17    48 1   
    42    20    21 1   
    43    22    23 1   
    44    22    27 1   
    45    22    49 1   
    46    23    24 1   
    47    23    50 1   
    48    23    51 1   
    49    24    25 1   
    50    24    52 1   
    51    24    53 1   
    52    25    26 1   
    53    25    54 1   
    54    25    55 1   
    55    26    27 1   
    56    26    56 1   
    57    26    57 1   
    58    27    58 1   
    59    27    59 1   
    60    28    60 1   
    61    29    61 1   
    62    30    31 1   
    63    30    62 1   
    64    30    63 1   
    65    31    64 1   
    66    31    65 1   
    67    32    33 ar  
    68    32    66 1   
    69    33    34 ar  
    70    33    67 1   
    71    34    35 ar  
    72    34    68 1   
    73    35    69 1   
    74    45    71 1   
    75    46    71 1   
    76    47    71 1   
@<TRIPOS>SUBSTRUCTURE
     1 9MY         1 TEMP              0 ****  ****    0 ROOT
