@<TRIPOS>MOLECULE
9MY
   72    76     1     0     0
SMALL
No Charge or Current Charge


@<TRIPOS>ATOM
      1 N1           1.3690     0.3920     0.1390 na         1 9MY      -0.166600
      2 N3           3.0400    -0.9360    -0.7530 nc         1 9MY      -0.529100
      3 C4           1.9970     1.0930    -0.8640 ca         1 9MY      -0.056200
      4 C5           2.9780     0.2900    -1.3860 ca         1 9MY       0.063400
      5 C6          -1.0570     1.0650     0.1650 c          1 9MY       0.592100
      6 C7           0.2410     0.8630     0.9890 c3         1 9MY       0.015300
      7 C8           1.7740     2.3970    -1.3440 ca         1 9MY      -0.110000
      8 C10          3.7940     0.7340    -2.4360 ca         1 9MY      -0.073000
      9 C13          3.5900     2.0320    -2.9440 ca         1 9MY       0.112000
     10 C15          0.3780    -2.6030     0.9420 ca         1 9MY      -0.143300
     11 C17         -3.2670     0.0080    -0.4480 c6         1 9MY       0.113700
     12 C21         -5.5070    -1.5070    -1.7600 c6         1 9MY       0.170300
     13 C22         -4.3180    -0.7720     0.3820 c6         1 9MY      -0.089900
     14 C24         -5.6750    -0.8600    -0.3620 c6         1 9MY      -0.090900
     15 C28         -0.5640    -2.6800     1.9880 ca         1 9MY      -0.093000
     16 O20          2.7640    -2.9830     1.1510 os         1 9MY      -0.410000
     17 C9           1.7440    -1.9520     1.1770 c3         1 9MY       0.211300
     18 C2           2.0620    -0.8380     0.1760 cd         1 9MY       0.410800
     19 F19          4.3690     2.4800    -3.9570 f          1 9MY      -0.165000
     20 C12          2.5840     2.8620    -2.3980 ca         1 9MY       0.142000
     21 F18          2.3920     4.1100    -2.8830 f          1 9MY      -0.163000
     22 C16          0.5910     2.0490     1.9540 c6         1 9MY      -0.070700
     23 C29         -0.5950     2.3790     2.9100 c6         1 9MY      -0.073400
     24 C35         -0.2530     3.5460     3.8690 c6         1 9MY      -0.072900
     25 C37          1.0280     3.2460     4.6820 c6         1 9MY      -0.076400
     26 C34          2.2160     2.9280     3.7450 c6         1 9MY      -0.072900
     27 C30          1.8780     1.7600     2.7870 c6         1 9MY      -0.073400
     28 N11         -1.9800     0.0430     0.2520 ns         1 9MY      -0.495900
     29 O26         -6.7620    -1.5170    -2.4420 oh         1 9MY      -0.658000
     30 C25         -4.4540    -0.7340    -2.5950 c6         1 9MY      -0.090900
     31 C23         -3.1000    -0.6420    -1.8460 c6         1 9MY      -0.089900
     32 C27          0.0560    -3.1440    -0.3200 ca         1 9MY      -0.093000
     33 C33         -1.1900    -3.7590    -0.5300 ca         1 9MY      -0.118000
     34 C36         -2.1220    -3.8360     0.5170 ca         1 9MY      -0.101000
     35 C32         -1.8100    -3.2940     1.7750 ca         1 9MY      -0.118000
     36 H1           0.0080     0.0350     1.6670 h1         1 9MY       0.066700
     37 H2           1.0070     3.0430    -0.9320 ha         1 9MY       0.159000
     38 H3           4.5690     0.0940    -2.8460 ha         1 9MY       0.150000
     39 H4          -3.6260     1.0400    -0.5780 h1         1 9MY       0.075700
     40 H6          -3.9560    -1.7850     0.5960 hc         1 9MY       0.049700
     41 H7          -4.4620    -0.2800     1.3540 hc         1 9MY       0.049700
     42 H8          -6.1050     0.1460    -0.4650 hc         1 9MY       0.054450
     43 H9          -6.3860    -1.4450     0.2360 hc         1 9MY       0.054450
     44 H10         -0.3300    -2.2740     2.9710 ha         1 9MY       0.125000
     45 H11          3.5410    -4.6490     2.1450 h1         1 9MY       0.035700
     46 H12          2.7500    -3.4540     3.1950 h1         1 9MY       0.035700
     47 H13          1.7710    -4.5310     2.1680 h1         1 9MY       0.035700
     48 H14          1.7400    -1.4820     2.1690 h1         1 9MY       0.043700
     49 H15          0.7790     2.9320     1.3280 hc         1 9MY       0.078700
     50 H16         -1.4910     2.6470     2.3340 hc         1 9MY       0.042450
     51 H17         -0.8590     1.4890     3.4980 hc         1 9MY       0.042450
     52 H18         -0.1170     4.4710     3.2910 hc         1 9MY       0.044950
     53 H19         -1.0940     3.7260     4.5520 hc         1 9MY       0.044950
     54 H20          1.2750     4.1060     5.3200 hc         1 9MY       0.040200
     55 H21          0.8490     2.3970     5.3560 hc         1 9MY       0.040200
     56 H22          2.4780     3.8220     3.1620 hc         1 9MY       0.044950
     57 H23          3.1030     2.6750     4.3420 hc         1 9MY       0.044950
     58 H24          1.7480     0.8360     3.3660 hc         1 9MY       0.042450
     59 H25          2.7360     1.5920     2.1220 hc         1 9MY       0.042450
     60 H26         -1.7170    -0.7680     0.8010 hn         1 9MY       0.319500
     61 H27         -6.6230    -2.0080    -3.2810 ho         1 9MY       0.444000
     62 H28         -4.3050    -1.2310    -3.5630 hc         1 9MY       0.054450
     63 H29         -4.8210     0.2780    -2.8150 hc         1 9MY       0.054450
     64 H30         -2.3880    -0.0590    -2.4450 hc         1 9MY       0.049700
     65 H31         -2.6700    -1.6470    -1.7420 hc         1 9MY       0.049700
     66 H32          0.7750    -3.0980    -1.1350 ha         1 9MY       0.125000
     67 H33         -1.4310    -4.1780    -1.5050 ha         1 9MY       0.119000
     68 H34         -3.0850    -4.3150     0.3540 ha         1 9MY       0.117000
     69 H35         -2.5320    -3.3550     2.5860 ha         1 9MY       0.119000
     70 O14         -1.2820     2.0690    -0.4970 o          1 9MY      -0.593100
     71 C31          2.6990    -3.9490     2.2170 c3         1 9MY       0.139900
     72 H5          -5.1520    -2.5390    -1.6220 h1         1 9MY       0.024700
@<TRIPOS>BOND
     1     1     3 1   
     2     1     6 1   
     3     1    18 1   
     4     2     4 1   
     5     2    18 2   
     6     3     4 ar  
     7     3     7 ar  
     8     4     8 ar  
     9     5     6 1   
    10     5    28 1   
    11     5    70 2   
    12     6    22 1   
    13     6    36 1   
    14     7    20 ar  
    15     7    37 1   
    16     8     9 ar  
    17     8    38 1   
    18     9    19 1   
    19     9    20 ar  
    20    10    15 ar  
    21    10    17 1   
    22    10    32 ar  
    23    11    13 1   
    24    11    28 1   
    25    11    31 1   
    26    11    39 1   
    27    12    14 1   
    28    12    29 1   
    29    12    30 1   
    30    12    72 1   
    31    13    14 1   
    32    13    40 1   
    33    13    41 1   
    34    14    42 1   
    35    14    43 1   
    36    15    35 ar  
    37    15    44 1   
    38    16    17 1   
    39    16    71 1   
    40    17    18 1   
    41    17    48 1   
    42    20    21 1   
    43    22    23 1   
    44    22    27 1   
    45    22    49 1   
    46    23    24 1   
    47    23    50 1   
    48    23    51 1   
    49    24    25 1   
    50    24    52 1   
    51    24    53 1   
    52    25    26 1   
    53    25    54 1   
    54    25    55 1   
    55    26    27 1   
    56    26    56 1   
    57    26    57 1   
    58    27    58 1   
    59    27    59 1   
    60    28    60 1   
    61    29    61 1   
    62    30    31 1   
    63    30    62 1   
    64    30    63 1   
    65    31    64 1   
    66    31    65 1   
    67    32    33 ar  
    68    32    66 1   
    69    33    34 ar  
    70    33    67 1   
    71    34    35 ar  
    72    34    68 1   
    73    35    69 1   
    74    45    71 1   
    75    46    71 1   
    76    47    71 1   
@<TRIPOS>SUBSTRUCTURE
     1 9MY         1 TEMP              0 ****  ****    0 ROOT
