@<TRIPOS>MOLECULE
9MZ
   45    47     1     0     0
SMALL
No Charge or Current Charge


@<TRIPOS>ATOM
      1 C2           8.8000     0.4860     0.6330 ca         1 9MZ      -0.170000
      2 C4           8.9700    -1.7350     1.5910 ca         1 9MZ      -0.166000
      3 C5           7.5850    -1.9080     1.4360 ca         1 9MZ      -0.042000
      4 C6           6.7890    -0.8850     0.8770 ca         1 9MZ      -0.269900
      5 F28         -7.1440    -0.5840     2.7410 f          1 9MZ      -0.113000
      6 F30         -5.2930    -1.6090     3.2450 f          1 9MZ      -0.113000
      7 F29         -6.9390    -2.7170     2.3710 f          1 9MZ      -0.113000
      8 C25         -5.7420    -1.2210     0.9190 ca         1 9MZ      -0.166300
      9 C26         -4.6180    -0.3820     0.7560 ca         1 9MZ      -0.120000
     10 C24         -6.3740    -1.7430    -0.2290 ca         1 9MZ      -0.086000
     11 C23         -5.8790    -1.4430    -1.5080 ca         1 9MZ      -0.090000
     12 C22         -4.7550    -0.6150    -1.6590 ca         1 9MZ      -0.104000
     13 C21         -4.1150    -0.0720    -0.5230 ca         1 9MZ      -0.024000
     14 N18         -2.9750     0.7770    -0.5920 ns         1 9MZ      -0.142000
     15 C17         -2.2630     1.3040    -1.6620 c          1 9MZ       0.606100
     16 O19         -2.5480     1.1250    -2.8400 o          1 9MZ      -0.576100
     17 C16         -1.0740     2.1850    -1.2620 c3         1 9MZ      -0.145400
     18 C13          0.2860     1.4920    -1.5650 c5         1 9MZ      -0.063700
     19 C14          1.5290     2.3850    -1.3010 c          1 9MZ       0.708500
     20 O20          1.5880     3.5990    -1.4130 o          1 9MZ      -0.502100
     21 N15          2.5730     1.5900    -0.8480 ne         1 9MZ      -0.693100
     22 C11          2.2410     0.4220    -0.4170 c2         1 9MZ       0.721100
     23 S12          0.5260    -0.0090    -0.5100 ss         1 9MZ      -0.264200
     24 N10          3.1550    -0.4840     0.1140 nu         1 9MZ      -0.551500
     25 N9           4.5130    -0.2470     0.2350 n2         1 9MZ      -0.444400
     26 C8           5.3190    -1.1370     0.7420 ce         1 9MZ       0.442800
     27 C3           9.5810    -0.5380     1.1900 ca         1 9MZ      -0.045000
     28 C1           7.4160     0.3200     0.4750 ca         1 9MZ       0.213100
     29 O1           6.7010     1.3410    -0.0700 oh         1 9MZ      -0.533100
     30 H2           9.2710     1.4150     0.3210 ha         1 9MZ       0.134000
     31 H4           9.5710    -2.5320     2.0240 ha         1 9MZ       0.119000
     32 H5           7.1290    -2.8440     1.7540 ha         1 9MZ       0.107000
     33 H26         -4.1290     0.0390     1.6330 ha         1 9MZ       0.127000
     34 H24         -7.2500    -2.3810    -0.1370 ha         1 9MZ       0.134000
     35 H23         -6.3710    -1.8530    -2.3880 ha         1 9MZ       0.124000
     36 H22         -4.4010    -0.4090    -2.6640 ha         1 9MZ       0.153000
     37 H1          -2.6080     1.0370     0.3140 hn         1 9MZ       0.157000
     38 H161        -1.1390     3.1120    -1.8450 hc         1 9MZ       0.086200
     39 H162        -1.1280     2.4290    -0.1940 hc         1 9MZ       0.086200
     40 H13          0.3360     1.2020    -2.6230 h1         1 9MZ       0.120700
     41 H9           2.7140    -1.3600     0.4110 hn         1 9MZ       0.508000
     42 H8           4.9500    -2.1060     1.0880 h4         1 9MZ      -0.007200
     43 H3          10.6550    -0.4040     1.3100 ha         1 9MZ       0.116000
     44 HO1          5.7600     1.0360    -0.0960 ho         1 9MZ       0.521000
     45 C27         -6.2800    -1.5360     2.3220 c3         1 9MZ       0.356300
@<TRIPOS>BOND
     1     1    27 ar  
     2     1    28 ar  
     3     1    30 1   
     4     2     3 ar  
     5     2    27 ar  
     6     2    31 1   
     7     3     4 ar  
     8     3    32 1   
     9     4    26 1   
    10     4    28 ar  
    11     5    45 1   
    12     6    45 1   
    13     7    45 1   
    14     8     9 ar  
    15     8    10 ar  
    16     8    45 1   
    17     9    13 ar  
    18     9    33 1   
    19    10    11 ar  
    20    10    34 1   
    21    11    12 ar  
    22    11    35 1   
    23    12    13 ar  
    24    12    36 1   
    25    13    14 1   
    26    14    15 1   
    27    14    37 1   
    28    15    16 2   
    29    15    17 1   
    30    17    18 1   
    31    17    38 1   
    32    17    39 1   
    33    18    19 1   
    34    18    23 1   
    35    18    40 1   
    36    19    20 2   
    37    19    21 1   
    38    21    22 2   
    39    22    23 1   
    40    22    24 1   
    41    24    25 1   
    42    24    41 1   
    43    25    26 2   
    44    26    42 1   
    45    27    43 1   
    46    28    29 1   
    47    29    44 1   
@<TRIPOS>SUBSTRUCTURE
     1 9MZ         1 TEMP              0 ****  ****    0 ROOT
