@<TRIPOS>MOLECULE
9MZ
   45    47     1     0     0
SMALL
bcc


@<TRIPOS>ATOM
      1 C2           8.7290     1.0760     0.9240 ca         1 9MZ      -0.188000
      2 C4           9.5070    -1.2100     0.9670 ca         1 9MZ      -0.184000
      3 C5           8.2380    -1.6360     0.6300 ca         1 9MZ      -0.060000
      4 C6           7.1930    -0.7260     0.4320 ca         1 9MZ      -0.269900
      5 F28         -8.4500     1.0830     0.5790 f          1 9MZ      -0.234300
      6 F30         -7.2770     1.0230     2.3810 f          1 9MZ      -0.234300
      7 F29         -8.5430    -0.6380     1.8610 f          1 9MZ      -0.234300
      8 C25         -6.5870    -0.3440     0.5860 ca         1 9MZ      -0.166300
      9 C26         -5.3410     0.2600     0.5760 ca         1 9MZ      -0.138000
     10 C24         -6.8200    -1.4960    -0.1570 ca         1 9MZ      -0.104000
     11 C23         -5.7820    -2.0270    -0.9020 ca         1 9MZ      -0.108000
     12 C22         -4.5270    -1.4370    -0.9240 ca         1 9MZ      -0.122000
     13 C21         -4.2980    -0.2810    -0.1780 ca         1 9MZ       0.068600
     14 N18         -3.0790     0.3980    -0.1290 ns         1 9MZ      -0.468100
     15 C17         -1.8870     0.0640    -0.6780 c          1 9MZ       0.673100
     16 O19         -1.6950    -0.9210    -1.3680 o          1 9MZ      -0.576100
     17 C16         -0.7730     1.0310    -0.3390 c3         1 9MZ      -0.145400
     18 C13          0.4410     0.8190    -1.2200 c5         1 9MZ      -0.111600
     19 C14          1.5840     1.7790    -0.8520 c          1 9MZ       0.708500
     20 O20          1.4020     2.9750    -0.8150 o          1 9MZ      -0.502100
     21 N15          2.7750     1.1720    -0.5860 ne         1 9MZ      -0.693100
     22 C11          2.6810    -0.1210    -0.6610 c2         1 9MZ       0.721100
     23 S12          1.1360    -0.8450    -1.0660 ss         1 9MZ      -0.216300
     24 N10          3.7080    -0.9410    -0.4410 nu         1 9MZ      -0.496300
     25 N9           4.9120    -0.4350    -0.1160 n2         1 9MZ      -0.444400
     26 C8           5.8850    -1.2380     0.0800 ce         1 9MZ       0.442800
     27 C3           9.7440     0.1550     1.1130 ca         1 9MZ      -0.063000
     28 C1           7.4440     0.6540     0.5830 ca         1 9MZ       0.213100
     29 O1           6.5020     1.5850     0.4160 oh         1 9MZ      -0.494100
     30 H2           8.9210     2.1350     1.0400 ha         1 9MZ       0.152000
     31 H4          10.3030    -1.9260     1.1160 ha         1 9MZ       0.137000
     32 H5           8.0340    -2.6940     0.5130 ha         1 9MZ       0.125000
     33 H26         -5.1600     1.1580     1.1550 ha         1 9MZ       0.145000
     34 H24         -7.7880    -1.9790    -0.1620 ha         1 9MZ       0.152000
     35 H23         -5.9470    -2.9240    -1.4840 ha         1 9MZ       0.142000
     36 H22         -3.7460    -1.8790    -1.5200 ha         1 9MZ       0.171000
     37 H1          -3.0870     1.2470     0.4170 hn         1 9MZ       0.323500
     38 H161        -1.1230     2.0590    -0.4580 hc         1 9MZ       0.086200
     39 H162        -0.5110     0.9070     0.7170 hc         1 9MZ       0.086200
     40 H13          0.1820     0.9860    -2.2680 h1         1 9MZ       0.120700
     41 H9           3.5870    -1.9460    -0.5140 hn         1 9MZ       0.452800
     42 H8           5.7710    -2.3200    -0.0080 h4         1 9MZ      -0.007200
     43 H3          10.7320     0.5060     1.3780 ha         1 9MZ       0.134000
     44 HO1          5.6520     1.1550     0.1780 ho         1 9MZ       0.482000
     45 C27         -7.7090     0.2790     1.3570 c3         1 9MZ       0.720200
@<TRIPOS>BOND
     1     1    27 ar  
     2     1    28 ar  
     3     1    30 1   
     4     2     3 ar  
     5     2    27 ar  
     6     2    31 1   
     7     3     4 ar  
     8     3    32 1   
     9     4    26 1   
    10     4    28 ar  
    11     5    45 1   
    12     6    45 1   
    13     7    45 1   
    14     8     9 ar  
    15     8    10 ar  
    16     8    45 1   
    17     9    13 ar  
    18     9    33 1   
    19    10    11 ar  
    20    10    34 1   
    21    11    12 ar  
    22    11    35 1   
    23    12    13 ar  
    24    12    36 1   
    25    13    14 1   
    26    14    15 1   
    27    14    37 1   
    28    15    16 2   
    29    15    17 1   
    30    17    18 1   
    31    17    38 1   
    32    17    39 1   
    33    18    19 1   
    34    18    23 1   
    35    18    40 1   
    36    19    20 2   
    37    19    21 1   
    38    21    22 2   
    39    22    23 1   
    40    22    24 1   
    41    24    25 1   
    42    24    41 1   
    43    25    26 2   
    44    26    42 1   
    45    27    43 1   
    46    28    29 1   
    47    29    44 1   
@<TRIPOS>SUBSTRUCTURE
     1 9MZ         1 TEMP              0 ****  ****    0 ROOT
