@<TRIPOS>MOLECULE
9N0
   60    63     1     0     0
SMALL
No Charge or Current Charge


@<TRIPOS>ATOM
      1 C5          -2.0230     0.2310    -0.9530 ca         1 9N0      -0.088000
      2 C4          -3.4240     0.1160    -0.8830 ca         1 9N0      -0.045300
      3 C3          -3.9810    -1.0230    -0.2720 ca         1 9N0      -0.084000
      4 C6          -1.1740    -0.7610    -0.4140 cp         1 9N0      -0.059000
      5 C11          0.9210     0.6640    -0.3000 ca         1 9N0      -0.125000
      6 C10          0.3140    -0.6050    -0.4710 cp         1 9N0       0.036000
      7 C1          -1.7670    -1.8950     0.1910 ca         1 9N0      -0.090000
      8 C8           2.5580    -1.5730    -0.7470 ca         1 9N0      -0.015000
      9 C12          2.3170     0.8180    -0.3510 ca         1 9N0      -0.015000
     10 O1           5.2520     1.2820    -0.9760 o          1 9N0      -0.523000
     11 O2           5.5060    -1.2300    -1.3940 o          1 9N0      -0.523000
     12 C20          5.4200    -0.3460     1.0810 c3         1 9N0      -0.309400
     13 C21          6.9340    -0.2220     1.2560 c3         1 9N0       0.192600
     14 O3           7.2370    -0.4210     2.6370 oh         1 9N0      -0.653000
     15 C7           3.1420    -0.3010    -0.5780 ca         1 9N0      -0.271500
     16 C9           1.1610    -1.7180    -0.6940 ca         1 9N0      -0.125000
     17 C23         -3.1730    -2.0490     0.2700 ca         1 9N0      -0.063300
     18 C24         -3.8470    -3.2810     0.9340 c3         1 9N0       0.000300
     19 C27         -4.7490    -3.9960    -0.1080 c3         1 9N0      -0.083767
     20 C26         -2.8260    -4.3230     1.4720 c3         1 9N0      -0.083767
     21 C25         -4.7170    -2.8060     2.1300 c3         1 9N0      -0.083767
     22 C13         -4.3480     1.1840    -1.4310 cx         1 9N0      -0.067400
     23 C22         -3.9450     2.1480    -2.5260 cx         1 9N0      -0.109400
     24 C14         -4.1660     2.6590    -1.1170 cx         1 9N0      -0.171000
     25 C18         -3.0520     3.1680    -0.2430 ca         1 9N0       0.385300
     26 N1          -3.1800     2.9230     1.0810 nb         1 9N0      -0.666000
     27 C19         -2.1920     3.3460     1.9030 ca         1 9N0       0.343900
     28 C15         -1.0550     4.0310     1.4420 ca         1 9N0      -0.165000
     29 C16         -0.9280     4.3010     0.0710 ca         1 9N0      -0.074000
     30 C17         -1.9510     3.8620    -0.7840 ca         1 9N0      -0.159000
     31 H1          -1.5730     1.0960    -1.4300 ha         1 9N0       0.114000
     32 H2          -5.0630    -1.1060    -0.2170 ha         1 9N0       0.116000
     33 H3           0.3040     1.5380    -0.1100 ha         1 9N0       0.123000
     34 H4          -1.1050    -2.6430     0.6130 ha         1 9N0       0.116000
     35 H5           3.1790    -2.4510    -0.9210 ha         1 9N0       0.136500
     36 H6           2.7490     1.8080    -0.2090 ha         1 9N0       0.136500
     37 H7           4.8990     0.4150     1.6700 h1         1 9N0       0.106700
     38 H8           5.0770    -1.3420     1.3780 h1         1 9N0       0.106700
     39 H9           7.4450    -0.9750     0.6390 h1         1 9N0       0.037700
     40 H10          7.2680     0.7730     0.9290 h1         1 9N0       0.037700
     41 H11          8.2120    -0.3380     2.7310 ho         1 9N0       0.447000
     42 H12          0.7310    -2.7050    -0.8400 ha         1 9N0       0.123000
     43 H13         -4.1610    -4.3040    -0.9810 hc         1 9N0       0.036367
     44 H14         -5.2120    -4.8930     0.3220 hc         1 9N0       0.036367
     45 H15         -5.5590    -3.3450    -0.4590 hc         1 9N0       0.036367
     46 H16         -2.1810    -3.8840     2.2430 hc         1 9N0       0.036367
     47 H17         -3.3410    -5.1790     1.9240 hc         1 9N0       0.036367
     48 H18         -2.1920    -4.7100     0.6640 hc         1 9N0       0.036367
     49 H19         -5.5230    -2.1390     1.8050 hc         1 9N0       0.036367
     50 H20         -5.1800    -3.6590     2.6410 hc         1 9N0       0.036367
     51 H21         -4.1050    -2.2640     2.8610 hc         1 9N0       0.036367
     52 H22         -5.3780     0.8370    -1.4780 hc         1 9N0       0.086700
     53 H23         -2.9320     2.0990    -2.9140 hc         1 9N0       0.075700
     54 H24         -4.6940     2.3970    -3.2750 hc         1 9N0       0.075700
     55 H25         -5.0770     3.2290    -0.9530 hc         1 9N0       0.099700
     56 H26         -2.3170     3.1290     2.9630 h4         1 9N0       0.018100
     57 H27         -0.2900     4.3490     2.1450 ha         1 9N0       0.124000
     58 H28         -0.0630     4.8350    -0.3180 ha         1 9N0       0.117000
     59 H29         -1.8910     4.0530    -1.8510 ha         1 9N0       0.121000
     60 S1           4.9360    -0.1110    -0.6330 sy         1 9N0       1.050500
@<TRIPOS>BOND
     1     1     2 ar  
     2     1     4 ar  
     3     1    31 1   
     4     2     3 ar  
     5     2    22 1   
     6     3    17 ar  
     7     3    32 1   
     8     4     6 1   
     9     4     7 ar  
    10     5     6 ar  
    11     5     9 ar  
    12     5    33 1   
    13     6    16 ar  
    14     7    17 ar  
    15     7    34 1   
    16     8    15 ar  
    17     8    16 ar  
    18     8    35 1   
    19     9    15 ar  
    20     9    36 1   
    21    10    60 2   
    22    11    60 2   
    23    12    13 1   
    24    12    37 1   
    25    12    38 1   
    26    12    60 1   
    27    13    14 1   
    28    13    39 1   
    29    13    40 1   
    30    14    41 1   
    31    15    60 1   
    32    16    42 1   
    33    17    18 1   
    34    18    19 1   
    35    18    20 1   
    36    18    21 1   
    37    19    43 1   
    38    19    44 1   
    39    19    45 1   
    40    20    46 1   
    41    20    47 1   
    42    20    48 1   
    43    21    49 1   
    44    21    50 1   
    45    21    51 1   
    46    22    23 1   
    47    22    24 1   
    48    22    52 1   
    49    23    24 1   
    50    23    53 1   
    51    23    54 1   
    52    24    25 1   
    53    24    55 1   
    54    25    26 ar  
    55    25    30 ar  
    56    26    27 ar  
    57    27    28 ar  
    58    27    56 1   
    59    28    29 ar  
    60    28    57 1   
    61    29    30 ar  
    62    29    58 1   
    63    30    59 1   
@<TRIPOS>SUBSTRUCTURE
     1 9N0         1 TEMP              0 ****  ****    0 ROOT
