@<TRIPOS>MOLECULE
9N0
   60    63     1     0     0
SMALL
bcc


@<TRIPOS>ATOM
      1 C5          -1.8200     0.1760    -1.2680 ca         1 9N0      -0.106000
      2 C4          -3.2080     0.1360    -1.1930 ca         1 9N0      -0.045300
      3 C3          -3.8040    -0.8800    -0.4530 ca         1 9N0      -0.102000
      4 C6          -1.0460    -0.7600    -0.5900 cp         1 9N0      -0.059000
      5 C11          1.0670     0.5600    -0.6560 ca         1 9N0      -0.143000
      6 C10          0.4250    -0.6820    -0.6460 cp         1 9N0       0.036000
      7 C1          -1.6740    -1.7630     0.1500 ca         1 9N0      -0.108000
      8 C8           2.5890    -1.7620    -0.7410 ca         1 9N0      -0.033000
      9 C12          2.4460     0.6510    -0.7170 ca         1 9N0      -0.033000
     10 O1           5.3180     0.8410    -1.5110 o          1 9N0      -0.593800
     11 O2           5.4920    -1.6620    -1.3430 o          1 9N0      -0.593800
     12 C20          5.4400    -0.2510     0.8930 c3         1 9N0      -0.198600
     13 C21          6.9500    -0.1180     1.0280 c3         1 9N0       0.169400
     14 O3           7.2160    -0.0050     2.4050 oh         1 9N0      -0.590800
     15 C7           3.1980    -0.5150    -0.7560 ca         1 9N0      -0.271500
     16 C9           1.2080    -1.8370    -0.6890 ca         1 9N0      -0.143000
     17 C23         -3.0600    -1.8430     0.2260 ca         1 9N0      -0.063300
     18 C24         -3.7830    -2.9270     1.0200 c3         1 9N0       0.000300
     19 C27         -4.6130    -3.7810     0.0520 c3         1 9N0      -0.083767
     20 C26         -2.8170    -3.8480     1.7670 c3         1 9N0      -0.083767
     21 C25         -4.7120    -2.2700     2.0490 c3         1 9N0      -0.083767
     22 C13         -4.0830     1.1570    -1.8220 cx         1 9N0      -0.067400
     23 C22         -3.5670     2.3190    -2.6090 cx         1 9N0      -0.109400
     24 C14         -4.1230     2.5680    -1.2480 cx         1 9N0      -0.171000
     25 C18         -3.2660     2.8990    -0.0810 ca         1 9N0       0.450600
     26 N1          -3.8200     2.6780     1.1120 nb         1 9N0      -0.666000
     27 C19         -3.1030     2.9210     2.2000 ca         1 9N0       0.409200
     28 C15         -1.8000     3.3970     2.1710 ca         1 9N0      -0.248300
     29 C16         -1.2290     3.6450     0.9340 ca         1 9N0      -0.092000
     30 C17         -1.9740     3.3970    -0.2090 ca         1 9N0      -0.242300
     31 H1          -1.3310     0.9240    -1.8780 ha         1 9N0       0.132000
     32 H2          -4.8860    -0.9060    -0.4060 ha         1 9N0       0.134000
     33 H3           0.4820     1.4690    -0.5960 ha         1 9N0       0.141000
     34 H4          -1.0600    -2.4730     0.6860 ha         1 9N0       0.134000
     35 H5           3.1770    -2.6690    -0.7830 ha         1 9N0       0.154500
     36 H6           2.9190     1.6240    -0.7280 ha         1 9N0       0.154500
     37 H7           4.9260     0.6260     1.2920 h1         1 9N0       0.106700
     38 H8           5.0710    -1.1410     1.4060 h1         1 9N0       0.106700
     39 H9           7.4380    -0.9960     0.5910 h1         1 9N0       0.037700
     40 H10          7.2930     0.7620     0.4730 h1         1 9N0       0.037700
     41 H11          8.1670     0.0860     2.5170 ho         1 9N0       0.408000
     42 H12          0.7360    -2.8120    -0.7050 ha         1 9N0       0.141000
     43 H13         -3.9730    -4.2920    -0.6700 hc         1 9N0       0.036367
     44 H14         -5.1740    -4.5410     0.6000 hc         1 9N0       0.036367
     45 H15         -5.3310    -3.1790    -0.5070 hc         1 9N0       0.036367
     46 H16         -2.2050    -3.3040     2.4890 hc         1 9N0       0.036367
     47 H17         -3.3840    -4.5980     2.3220 hc         1 9N0       0.036367
     48 H18         -2.1480    -4.3810     1.0890 hc         1 9N0       0.036367
     49 H19         -5.4650    -1.6370     1.5780 hc         1 9N0       0.036367
     50 H20         -5.2400    -3.0330     2.6250 hc         1 9N0       0.036367
     51 H21         -4.1490    -1.6500     2.7480 hc         1 9N0       0.036367
     52 H22         -5.0540     0.7780    -2.1200 hc         1 9N0       0.086700
     53 H23         -2.4990     2.4130    -2.7610 hc         1 9N0       0.075700
     54 H24         -4.1490     2.6450    -3.4610 hc         1 9N0       0.075700
     55 H25         -5.1160     3.0010    -1.1940 hc         1 9N0       0.099700
     56 H26         -3.5910     2.7300     3.1500 h4         1 9N0       0.018100
     57 H27         -1.2600     3.5750     3.0910 ha         1 9N0       0.142000
     58 H28         -0.2210     4.0330     0.8560 ha         1 9N0       0.135000
     59 H29         -1.5560     3.6020    -1.1850 ha         1 9N0       0.139000
     60 S1           4.9630    -0.4010    -0.8250 sy         1 9N0       1.081300
@<TRIPOS>BOND
     1     1     2 ar  
     2     1     4 ar  
     3     1    31 1   
     4     2     3 ar  
     5     2    22 1   
     6     3    17 ar  
     7     3    32 1   
     8     4     6 1   
     9     4     7 ar  
    10     5     6 ar  
    11     5     9 ar  
    12     5    33 1   
    13     6    16 ar  
    14     7    17 ar  
    15     7    34 1   
    16     8    15 ar  
    17     8    16 ar  
    18     8    35 1   
    19     9    15 ar  
    20     9    36 1   
    21    10    60 2   
    22    11    60 2   
    23    12    13 1   
    24    12    37 1   
    25    12    38 1   
    26    12    60 1   
    27    13    14 1   
    28    13    39 1   
    29    13    40 1   
    30    14    41 1   
    31    15    60 1   
    32    16    42 1   
    33    17    18 1   
    34    18    19 1   
    35    18    20 1   
    36    18    21 1   
    37    19    43 1   
    38    19    44 1   
    39    19    45 1   
    40    20    46 1   
    41    20    47 1   
    42    20    48 1   
    43    21    49 1   
    44    21    50 1   
    45    21    51 1   
    46    22    23 1   
    47    22    24 1   
    48    22    52 1   
    49    23    24 1   
    50    23    53 1   
    51    23    54 1   
    52    24    25 1   
    53    24    55 1   
    54    25    26 ar  
    55    25    30 ar  
    56    26    27 ar  
    57    27    28 ar  
    58    27    56 1   
    59    28    29 ar  
    60    28    57 1   
    61    29    30 ar  
    62    29    58 1   
    63    30    59 1   
@<TRIPOS>SUBSTRUCTURE
     1 9N0         1 TEMP              0 ****  ****    0 ROOT
