@<TRIPOS>MOLECULE
9N1
   72    76     1     0     0
SMALL
No Charge or Current Charge


@<TRIPOS>ATOM
      1 N3           0.7680     0.9940    -2.8210 nc         1 9N1      -0.561100
      2 C4           1.1930    -0.7990    -1.2160 ca         1 9N1      -0.198900
      3 C5          -1.5890     0.5790     0.7240 c          1 9N1       0.583100
      4 C6          -0.1770     1.2030     0.7690 c3         1 9N1       0.021300
      5 C7          -0.1370     2.5480    -1.4140 ca         1 9N1      -0.060200
      6 C8           0.1730     2.2340    -2.7120 ca         1 9N1       0.062400
      7 C15          1.8170    -3.4760    -0.5850 ca         1 9N1       0.192100
      8 C21         -0.1370     3.1100    -3.7640 ca         1 9N1      -0.055000
      9 C22          1.3990     3.0160     1.7760 c6         1 9N1      -0.073400
     10 C26         -2.4420    -3.0880     0.9560 c6         1 9N1      -0.090900
     11 C28         -1.0990     4.6500    -2.1280 ca         1 9N1      -0.102000
     12 N10         -1.5990    -0.7970     0.6350 ns         1 9N1      -0.500900
     13 C18         -2.7870    -1.6430     0.5120 c6         1 9N1       0.115700
     14 C27         -3.2930    -1.6530    -0.9550 c6         1 9N1      -0.090900
     15 C33         -4.5130    -2.5920    -1.1270 c6         1 9N1      -0.071400
     16 C34         -4.1790    -4.0300    -0.6620 c6         1 9N1      -0.077400
     17 C32         -3.6570    -4.0370     0.7950 c6         1 9N1      -0.071400
     18 C14          0.0280     2.2830     1.8900 c6         1 9N1      -0.062700
     19 C23         -0.1160     1.6500     3.3060 c6         1 9N1      -0.073400
     20 C30          0.0660     2.7030     4.4270 c6         1 9N1      -0.073400
     21 C35          1.4250     3.4290     4.2970 c6         1 9N1      -0.076400
     22 C31          1.5810     4.0690     2.8970 c6         1 9N1      -0.073400
     23 N2           0.2930     1.5110    -0.6110 na         1 9N1      -0.168600
     24 C19         -0.7820     3.7560    -1.0860 ca         1 9N1      -0.095000
     25 C29         -0.7760     4.3290    -3.4640 ca         1 9N1      -0.135000
     26 C1           0.8240     0.5860    -1.5390 cd         1 9N1       0.482400
     27 C11          0.5620    -1.8560    -1.8990 ca         1 9N1      -0.007000
     28 C16          0.8610    -3.1890    -1.5770 ca         1 9N1      -0.250000
     29 O20          2.1440    -4.7640    -0.2200 os         1 9N1      -0.339100
     30 C25          1.4990    -5.9120    -0.8010 c3         1 9N1       0.147900
     31 C12          2.4790    -2.4260     0.0640 ca         1 9N1      -0.252000
     32 C9           2.1800    -1.0850    -0.2530 ca         1 9N1       0.199100
     33 O17          2.8350    -0.0310     0.3520 os         1 9N1      -0.328100
     34 H1           0.4650     0.3830     1.1050 h1         1 9N1       0.070700
     35 H2           0.1090     2.8480    -4.7900 ha         1 9N1       0.125000
     36 H3           2.2180     2.2860     1.8260 hc         1 9N1       0.044950
     37 H4           1.4910     3.5170     0.8030 hc         1 9N1       0.044950
     38 H5           3.4140    -0.7420     2.2360 h1         1 9N1       0.045700
     39 H6           4.6790    -0.8050     0.9790 h1         1 9N1       0.045700
     40 H7           4.2210     0.7480     1.7060 h1         1 9N1       0.045700
     41 H9          -2.1140    -3.0870     2.0050 hc         1 9N1       0.046950
     42 H10         -1.5960     5.5910    -1.9010 ha         1 9N1       0.110000
     43 H11         -0.6950    -1.2540     0.6000 hn         1 9N1       0.314500
     44 H12         -3.5750    -1.2430     1.1680 h1         1 9N1       0.070700
     45 H13         -3.5680    -0.6350    -1.2630 hc         1 9N1       0.046950
     46 H14         -2.4860    -1.9740    -1.6270 hc         1 9N1       0.046950
     47 H15         -5.3640    -2.2030    -0.5500 hc         1 9N1       0.043200
     48 H16         -4.8290    -2.6050    -2.1790 hc         1 9N1       0.043200
     49 H17         -5.0720    -4.6660    -0.7410 hc         1 9N1       0.039200
     50 H18         -3.4230    -4.4680    -1.3280 hc         1 9N1       0.039200
     51 H19         -3.3740    -5.0580     1.0860 hc         1 9N1       0.043200
     52 H20         -4.4600    -3.7290     1.4790 hc         1 9N1       0.043200
     53 H21         -0.7750     3.0220     1.7860 hc         1 9N1       0.075700
     54 H22         -1.1020     1.1770     3.4140 hc         1 9N1       0.044950
     55 H23          0.6270     0.8490     3.4360 hc         1 9N1       0.044950
     56 H24         -0.7520     3.4360     4.3820 hc         1 9N1       0.041950
     57 H25         -0.0050     2.2180     5.4100 hc         1 9N1       0.041950
     58 H26          1.5110     4.2030     5.0720 hc         1 9N1       0.037700
     59 H27          2.2440     2.7180     4.4720 hc         1 9N1       0.037700
     60 H28          2.5700     4.5380     2.8100 hc         1 9N1       0.041950
     61 H29          0.8420     4.8730     2.7720 hc         1 9N1       0.041950
     62 H30         -1.0380     4.0170    -0.0670 ha         1 9N1       0.127000
     63 H31         -1.0250     5.0220    -4.2650 ha         1 9N1       0.111000
     64 H32         -0.1840    -1.6440    -2.6630 ha         1 9N1       0.131000
     65 H33          0.3400    -3.9800    -2.1080 ha         1 9N1       0.125000
     66 H34          1.8990    -6.8350    -0.3630 h1         1 9N1       0.044367
     67 H35          0.4180    -5.8870    -0.6140 h1         1 9N1       0.044367
     68 H36          1.6690    -5.9490    -1.8840 h1         1 9N1       0.044367
     69 H37          3.2240    -2.6770     0.8120 ha         1 9N1       0.136000
     70 O13         -2.6210     1.2360     0.7710 o          1 9N1      -0.589100
     71 H8          -1.5980    -3.4710     0.3660 hc         1 9N1       0.046950
     72 C24          3.8350    -0.2210     1.3670 c3         1 9N1       0.143900
@<TRIPOS>BOND
     1     1     6 1   
     2     1    26 2   
     3     2    26 1   
     4     2    27 ar  
     5     2    32 ar  
     6     3     4 1   
     7     3    12 1   
     8     3    70 2   
     9     4    18 1   
    10     4    23 1   
    11     4    34 1   
    12     5     6 ar  
    13     5    23 1   
    14     5    24 ar  
    15     6     8 ar  
    16     7    28 ar  
    17     7    29 1   
    18     7    31 ar  
    19     8    25 ar  
    20     8    35 1   
    21     9    18 1   
    22     9    22 1   
    23     9    36 1   
    24     9    37 1   
    25    10    13 1   
    26    10    17 1   
    27    10    41 1   
    28    10    71 1   
    29    11    24 ar  
    30    11    25 ar  
    31    11    42 1   
    32    12    13 1   
    33    12    43 1   
    34    13    14 1   
    35    13    44 1   
    36    14    15 1   
    37    14    45 1   
    38    14    46 1   
    39    15    16 1   
    40    15    47 1   
    41    15    48 1   
    42    16    17 1   
    43    16    49 1   
    44    16    50 1   
    45    17    51 1   
    46    17    52 1   
    47    18    19 1   
    48    18    53 1   
    49    19    20 1   
    50    19    54 1   
    51    19    55 1   
    52    20    21 1   
    53    20    56 1   
    54    20    57 1   
    55    21    22 1   
    56    21    58 1   
    57    21    59 1   
    58    22    60 1   
    59    22    61 1   
    60    23    26 1   
    61    24    62 1   
    62    25    63 1   
    63    27    28 ar  
    64    27    64 1   
    65    28    65 1   
    66    29    30 1   
    67    30    66 1   
    68    30    67 1   
    69    30    68 1   
    70    31    32 ar  
    71    31    69 1   
    72    32    33 1   
    73    33    72 1   
    74    38    72 1   
    75    39    72 1   
    76    40    72 1   
@<TRIPOS>SUBSTRUCTURE
     1 9N1         1 TEMP              0 ****  ****    0 ROOT
