@<TRIPOS>MOLECULE
9N1
   72    76     1     0     0
SMALL
abcg2


@<TRIPOS>ATOM
      1 N3           0.9280     1.0840    -2.7190 nc         1 9N1      -0.561100
      2 C4           1.3110    -0.7810    -1.1760 ca         1 9N1      -0.198900
      3 C5          -1.5990     0.4420     0.6720 c          1 9N1       0.583100
      4 C6          -0.1670     0.9850     0.7230 c3         1 9N1       0.021300
      5 C7          -0.1970     2.5020    -1.3350 ca         1 9N1      -0.060200
      6 C8           0.2930     2.2980    -2.6360 ca         1 9N1       0.062400
      7 C15          2.1160    -3.3720    -0.5100 ca         1 9N1       0.192100
      8 C21          0.0980     3.2580    -3.6280 ca         1 9N1      -0.055000
      9 C22          1.3510     2.7680     1.7180 c6         1 9N1      -0.073400
     10 C26         -2.7570    -3.0500     1.0260 c6         1 9N1      -0.090900
     11 C28         -1.0850     4.5980    -1.9950 ca         1 9N1      -0.102000
     12 N10         -1.6980    -0.8920     0.6960 ns         1 9N1      -0.500900
     13 C18         -2.9450    -1.6190     0.5280 c6         1 9N1       0.115700
     14 C27         -3.4200    -1.6070    -0.9250 c6         1 9N1      -0.090900
     15 C33         -4.7000    -2.4200    -1.0890 c6         1 9N1      -0.071400
     16 C34         -4.5170    -3.8500    -0.5920 c6         1 9N1      -0.077400
     17 C32         -4.0330    -3.8670     0.8540 c6         1 9N1      -0.071400
     18 C14         -0.0090     2.0750     1.7840 c6         1 9N1      -0.062700
     19 C23         -0.2160     1.4560     3.1710 c6         1 9N1      -0.073400
     20 C30         -0.0820     2.5040     4.2710 c6         1 9N1      -0.073400
     21 C35          1.2620     3.2190     4.1950 c6         1 9N1      -0.076400
     22 C31          1.4800     3.8230     2.8120 c6         1 9N1      -0.073400
     23 N2           0.1920     1.3820    -0.6320 na         1 9N1      -0.168600
     24 C19         -0.9010     3.6560    -0.9980 ca         1 9N1      -0.095000
     25 C29         -0.5930     4.4060    -3.2940 ca         1 9N1      -0.135000
     26 C1           0.8440     0.5700    -1.5260 cd         1 9N1       0.482400
     27 C11          0.6340    -1.8890    -1.6610 ca         1 9N1      -0.007000
     28 C16          1.0130    -3.1850    -1.3390 ca         1 9N1      -0.250000
     29 O20          2.5720    -4.5710    -0.1200 os         1 9N1      -0.339100
     30 C25          1.8950    -5.7310    -0.5660 c3         1 9N1       0.147900
     31 C12          2.8310    -2.2710    -0.0270 ca         1 9N1      -0.252000
     32 C9           2.4380    -0.9850    -0.3630 ca         1 9N1       0.199100
     33 O17          3.0690     0.1240     0.0480 os         1 9N1      -0.328100
     34 H1           0.5210     0.1820     0.9930 h1         1 9N1       0.070700
     35 H2           0.4780     3.0990    -4.6300 ha         1 9N1       0.125000
     36 H3           2.1420     2.0200     1.8380 hc         1 9N1       0.044950
     37 H4           1.5060     3.2280     0.7400 hc         1 9N1       0.044950
     38 H5           3.9050    -0.4820     1.8570 h1         1 9N1       0.045700
     39 H6           4.9950    -0.5610     0.4540 h1         1 9N1       0.045700
     40 H7           4.5220     1.0100     1.1240 h1         1 9N1       0.045700
     41 H9          -2.4470    -3.0400     2.0730 hc         1 9N1       0.046950
     42 H10         -1.6290     5.5040    -1.7640 ha         1 9N1       0.110000
     43 H11         -0.8520    -1.4380     0.7510 hn         1 9N1       0.314500
     44 H12         -3.7050    -1.1310     1.1480 h1         1 9N1       0.070700
     45 H13         -3.5790    -0.5800    -1.2560 hc         1 9N1       0.046950
     46 H14         -2.6310    -2.0280    -1.5590 hc         1 9N1       0.046950
     47 H15         -5.5080    -1.9410    -0.5260 hc         1 9N1       0.043200
     48 H16         -5.0090    -2.4160    -2.1370 hc         1 9N1       0.043200
     49 H17         -5.4520    -4.4070    -0.6820 hc         1 9N1       0.039200
     50 H18         -3.7860    -4.3630    -1.2260 hc         1 9N1       0.039200
     51 H19         -3.8560    -4.8930     1.1840 hc         1 9N1       0.043200
     52 H20         -4.8140    -3.4620     1.5050 hc         1 9N1       0.043200
     53 H21         -0.7930     2.8260     1.6460 hc         1 9N1       0.075700
     54 H22         -1.1950     0.9760     3.2390 hc         1 9N1       0.044950
     55 H23          0.5310     0.6680     3.3250 hc         1 9N1       0.044950
     56 H24         -0.8900     3.2360     4.1670 hc         1 9N1       0.041950
     57 H25         -0.2100     2.0340     5.2480 hc         1 9N1       0.041950
     58 H26          1.3260     3.9930     4.9630 hc         1 9N1       0.037700
     59 H27          2.0630     2.5010     4.4050 hc         1 9N1       0.037700
     60 H28          2.4620     4.2980     2.7540 hc         1 9N1       0.041950
     61 H29          0.7400     4.6120     2.6390 hc         1 9N1       0.041950
     62 H30         -1.3010     3.8290    -0.0110 ha         1 9N1       0.127000
     63 H31         -0.7630     5.1680    -4.0430 ha         1 9N1       0.111000
     64 H32         -0.2230    -1.7400    -2.3050 ha         1 9N1       0.131000
     65 H33          0.4470    -4.0140    -1.7380 ha         1 9N1       0.125000
     66 H34          2.4230    -6.5790    -0.1370 h1         1 9N1       0.044367
     67 H35          0.8570    -5.7530    -0.2250 h1         1 9N1       0.044367
     68 H36          1.9130    -5.8190    -1.6550 h1         1 9N1       0.044367
     69 H37          3.6900    -2.4530     0.6050 ha         1 9N1       0.136000
     70 O13         -2.5560     1.1960     0.5790 o          1 9N1      -0.589100
     71 H8          -1.9460    -3.5220     0.4570 hc         1 9N1       0.046950
     72 C24          4.1800    -0.0000     0.9160 c3         1 9N1       0.143900
@<TRIPOS>BOND
     1     1     6 1   
     2     1    26 2   
     3     2    26 1   
     4     2    27 ar  
     5     2    32 ar  
     6     3     4 1   
     7     3    12 1   
     8     3    70 2   
     9     4    18 1   
    10     4    23 1   
    11     4    34 1   
    12     5     6 ar  
    13     5    23 1   
    14     5    24 ar  
    15     6     8 ar  
    16     7    28 ar  
    17     7    29 1   
    18     7    31 ar  
    19     8    25 ar  
    20     8    35 1   
    21     9    18 1   
    22     9    22 1   
    23     9    36 1   
    24     9    37 1   
    25    10    13 1   
    26    10    17 1   
    27    10    41 1   
    28    10    71 1   
    29    11    24 ar  
    30    11    25 ar  
    31    11    42 1   
    32    12    13 1   
    33    12    43 1   
    34    13    14 1   
    35    13    44 1   
    36    14    15 1   
    37    14    45 1   
    38    14    46 1   
    39    15    16 1   
    40    15    47 1   
    41    15    48 1   
    42    16    17 1   
    43    16    49 1   
    44    16    50 1   
    45    17    51 1   
    46    17    52 1   
    47    18    19 1   
    48    18    53 1   
    49    19    20 1   
    50    19    54 1   
    51    19    55 1   
    52    20    21 1   
    53    20    56 1   
    54    20    57 1   
    55    21    22 1   
    56    21    58 1   
    57    21    59 1   
    58    22    60 1   
    59    22    61 1   
    60    23    26 1   
    61    24    62 1   
    62    25    63 1   
    63    27    28 ar  
    64    27    64 1   
    65    28    65 1   
    66    29    30 1   
    67    30    66 1   
    68    30    67 1   
    69    30    68 1   
    70    31    32 ar  
    71    31    69 1   
    72    32    33 1   
    73    33    72 1   
    74    38    72 1   
    75    39    72 1   
    76    40    72 1   
@<TRIPOS>SUBSTRUCTURE
     1 9N1         1 TEMP              0 ****  ****    0 ROOT
