@<TRIPOS>MOLECULE
9N2
   31    33     1     0     0
SMALL
abcg2


@<TRIPOS>ATOM
      1 F            4.7960     2.4980    -0.6410 f          1 9N2      -0.160000
      2 C12          3.9160     1.5090    -0.4540 ca         1 9N2       0.170000
      3 C11          2.7220     1.5150    -1.1380 ca         1 9N2      -0.138000
      4 C10          1.8070     0.4940    -0.9220 ca         1 9N2      -0.057000
      5 C13          4.2520     0.4960     0.4450 ca         1 9N2       0.087100
      6 O1           5.4380     0.5830     1.0670 oh         1 9N2      -0.514100
      7 C14          3.3440    -0.5310     0.6310 ca         1 9N2      -0.135000
      8 C9           2.1150    -0.5320    -0.0350 ca         1 9N2      -0.134600
      9 C8           1.2190    -1.6930     0.1730 c          1 9N2       0.495200
     10 O            1.6490    -2.7730     0.5170 o          1 9N2      -0.509100
     11 C7          -0.2610    -1.5380    -0.0200 ca         1 9N2       0.293500
     12 C6          -1.0200    -2.6630    -0.4210 ca         1 9N2      -0.115000
     13 C5          -2.3730    -2.5330    -0.5290 ca         1 9N2      -0.071000
     14 N1          -0.7860    -0.3770     0.2670 nb         1 9N2      -0.630000
     15 C15         -2.1260    -0.2360     0.1840 ca         1 9N2       0.252000
     16 C4          -2.9770    -1.2960    -0.2160 ca         1 9N2      -0.055000
     17 C3          -4.3710    -1.0810    -0.2890 ca         1 9N2      -0.095000
     18 C2          -4.9000     0.1370     0.0250 ca         1 9N2      -0.071000
     19 C16         -2.6840     1.0180     0.5050 ca         1 9N2      -0.031000
     20 C1          -4.0440     1.1940     0.4240 ca         1 9N2      -0.008000
     21 C           -4.6100     2.4650     0.7450 cg         1 9N2       0.318000
     22 N           -5.0730     3.4880     1.0010 n1         1 9N2      -0.438000
     23 H1           2.5080     2.3160    -1.8330 ha         1 9N2       0.138000
     24 H2           0.8750     0.5040    -1.4670 ha         1 9N2       0.130000
     25 H3           5.5580    -0.1630     1.6660 ho         1 9N2       0.471000
     26 H4           3.5880    -1.3360     1.3150 ha         1 9N2       0.133000
     27 H5          -0.5310    -3.5990    -0.6490 ha         1 9N2       0.145000
     28 H6          -2.9870    -3.3660    -0.8460 ha         1 9N2       0.128000
     29 H7          -5.0170    -1.8930    -0.5930 ha         1 9N2       0.125000
     30 H8          -5.9670     0.3040    -0.0280 ha         1 9N2       0.131000
     31 H9          -2.0290     1.8230     0.8080 ha         1 9N2       0.147000
@<TRIPOS>BOND
     1     1     2 1   
     2     2     3 ar  
     3     2     5 ar  
     4     3     4 ar  
     5     3    23 1   
     6     4     8 ar  
     7     4    24 1   
     8     5     6 1   
     9     5     7 ar  
    10     6    25 1   
    11     7     8 ar  
    12     7    26 1   
    13     8     9 1   
    14     9    10 2   
    15     9    11 1   
    16    11    12 ar  
    17    11    14 ar  
    18    12    13 ar  
    19    12    27 1   
    20    13    16 ar  
    21    13    28 1   
    22    14    15 ar  
    23    15    16 ar  
    24    15    19 ar  
    25    16    17 ar  
    26    17    18 ar  
    27    17    29 1   
    28    18    20 ar  
    29    18    30 1   
    30    19    20 ar  
    31    19    31 1   
    32    20    21 1   
    33    21    22 3   
@<TRIPOS>SUBSTRUCTURE
     1 9N2         1 TEMP              0 ****  ****    0 ROOT
