@<TRIPOS>MOLECULE
9N2
   31    33     1     0     0
SMALL
No Charge or Current Charge


@<TRIPOS>ATOM
      1 F            4.7780     2.6890    -0.4770 f          1 9N2      -0.160000
      2 C12          3.9500     1.6240    -0.3560 ca         1 9N2       0.170000
      3 C11          2.7530     1.6000    -1.0870 ca         1 9N2      -0.138000
      4 C10          1.8800     0.5040    -0.9750 ca         1 9N2      -0.057000
      5 C13          4.2890     0.5450     0.4890 ca         1 9N2       0.087100
      6 O1           5.4600     0.5530     1.2020 oh         1 9N2      -0.514100
      7 C14          3.4130    -0.5510     0.5980 ca         1 9N2      -0.135000
      8 C9           2.1940    -0.5780    -0.1200 ca         1 9N2      -0.134600
      9 C8           1.2770    -1.7840     0.0030 c          1 9N2       0.495200
     10 O            1.7730    -2.9000     0.1560 o          1 9N2      -0.509100
     11 C7          -0.2430    -1.5990    -0.0700 ca         1 9N2       0.293500
     12 C6          -1.0580    -2.7130    -0.3690 ca         1 9N2      -0.115000
     13 C5          -2.4530    -2.5660    -0.4160 ca         1 9N2      -0.071000
     14 N1          -0.7940    -0.3780     0.1950 nb         1 9N2      -0.630000
     15 C15         -2.1380    -0.2220     0.1520 ca         1 9N2       0.252000
     16 C4          -3.0040    -1.3010    -0.1540 ca         1 9N2      -0.055000
     17 C3          -4.3980    -1.1140    -0.1920 ca         1 9N2      -0.095000
     18 C2          -4.9450     0.1520     0.0740 ca         1 9N2      -0.071000
     19 C16         -2.7030     1.0390     0.4170 ca         1 9N2      -0.031000
     20 C1          -4.0970     1.2330     0.3800 ca         1 9N2      -0.008000
     21 C           -4.6510     2.5310     0.6530 cg         1 9N2       0.318000
     22 N           -5.0920     3.5890     0.8760 n1         1 9N2      -0.438000
     23 H1           2.5050     2.4300    -1.7440 ha         1 9N2       0.138000
     24 H2           0.9680     0.4960    -1.5680 ha         1 9N2       0.130000
     25 H3           5.5220    -0.2750     1.7250 ho         1 9N2       0.471000
     26 H4           3.6710    -1.3860     1.2480 ha         1 9N2       0.133000
     27 H5          -0.6100    -3.6840    -0.5670 ha         1 9N2       0.145000
     28 H6          -3.0890    -3.4170    -0.6510 ha         1 9N2       0.128000
     29 H7          -5.0590    -1.9460    -0.4270 ha         1 9N2       0.125000
     30 H8          -6.0240     0.2910     0.0420 ha         1 9N2       0.131000
     31 H9          -2.0450     1.8720     0.6530 ha         1 9N2       0.147000
@<TRIPOS>BOND
     1     1     2 1   
     2     2     3 ar  
     3     2     5 ar  
     4     3     4 ar  
     5     3    23 1   
     6     4     8 ar  
     7     4    24 1   
     8     5     6 1   
     9     5     7 ar  
    10     6    25 1   
    11     7     8 ar  
    12     7    26 1   
    13     8     9 1   
    14     9    10 2   
    15     9    11 1   
    16    11    12 ar  
    17    11    14 ar  
    18    12    13 ar  
    19    12    27 1   
    20    13    16 ar  
    21    13    28 1   
    22    14    15 ar  
    23    15    16 ar  
    24    15    19 ar  
    25    16    17 ar  
    26    17    18 ar  
    27    17    29 1   
    28    18    20 ar  
    29    18    30 1   
    30    19    20 ar  
    31    19    31 1   
    32    20    21 1   
    33    21    22 3   
@<TRIPOS>SUBSTRUCTURE
     1 9N2         1 TEMP              0 ****  ****    0 ROOT
