@<TRIPOS>MOLECULE
9N3
   59    61     1     0     0
SMALL
bcc


@<TRIPOS>ATOM
      1 C2           1.8190     2.5960    -0.2170 ca         1 9N3      -0.063300
      2 C5           1.3270    -0.0540     0.5530 ca         1 9N3      -0.110000
      3 C4           2.6360     0.4090     0.4850 ca         1 9N3      -0.080300
      4 C3           2.8630     1.7250     0.1000 ca         1 9N3      -0.111000
      5 C6           0.2610     0.7890     0.2550 cp         1 9N3      -0.057000
      6 C11         -1.4570    -0.9920    -0.0750 ca         1 9N3      -0.141500
      7 C10         -1.1280     0.3000     0.3420 cp         1 9N3       0.033000
      8 C1           0.5210     2.1060    -0.1280 ca         1 9N3      -0.110000
      9 C8          -3.4460     0.6650     0.9360 ca         1 9N3      -0.032500
     10 C12         -2.7580    -1.4570     0.0040 ca         1 9N3      -0.032500
     11 O2          -6.0970    -0.4790     1.6750 o          1 9N3      -0.594300
     12 O1          -5.3950    -2.6640     0.6500 o          1 9N3      -0.594300
     13 C20         -6.1210    -0.6980    -0.9600 c3         1 9N3      -0.198600
     14 C21         -7.5930    -1.0810    -1.0390 c3         1 9N3       0.169400
     15 O3          -8.0450    -0.6600    -2.3020 oh         1 9N3      -0.590800
     16 C7          -3.7440    -0.6220     0.5090 ca         1 9N3      -0.271500
     17 C9          -2.1410     1.1180     0.8480 ca         1 9N3      -0.141500
     18 C22          2.1320     4.0240    -0.6510 c3         1 9N3       0.000300
     19 C25          3.0050     3.9850    -1.9130 c3         1 9N3      -0.083767
     20 C24          0.8690     4.8280    -0.9610 c3         1 9N3      -0.083767
     21 C23          2.8940     4.7420     0.4710 c3         1 9N3      -0.083767
     22 C13          3.7890    -0.5070     0.7810 c3         1 9N3      -0.029100
     23 C14          4.3960    -1.0880    -0.5050 c3         1 9N3      -0.124700
     24 C18          5.5560    -1.9920    -0.2050 ca         1 9N3       0.413600
     25 C17          5.4300    -3.3770    -0.2790 ca         1 9N3      -0.242300
     26 C16          6.5180    -4.1720     0.0450 ca         1 9N3      -0.089000
     27 N1           6.6930    -1.4070     0.1680 nb         1 9N3      -0.675000
     28 C19          7.7310    -2.1750     0.4760 ca         1 9N3       0.406200
     29 C15          7.7000    -3.5610     0.4330 ca         1 9N3      -0.249300
     30 H1           1.1410    -1.0740     0.8710 ha         1 9N3       0.133000
     31 H2           3.8890     2.0730     0.0510 ha         1 9N3       0.136000
     32 H3          -0.6920    -1.6400    -0.4830 ha         1 9N3       0.141500
     33 H4          -0.3150     2.7440    -0.3820 ha         1 9N3       0.134000
     34 H5          -4.2120     1.3100     1.3450 ha         1 9N3       0.155000
     35 H6          -2.9930    -2.4590    -0.3310 ha         1 9N3       0.155000
     36 H7          -5.9870     0.3830    -1.0400 h1         1 9N3       0.107200
     37 H8          -5.5410    -1.1860    -1.7460 h1         1 9N3       0.107200
     38 H9          -7.6980    -2.1640    -0.9090 h1         1 9N3       0.037200
     39 H10         -8.1420    -0.5950    -0.2270 h1         1 9N3       0.037200
     40 H11         -8.9870    -0.8500    -2.3590 ho         1 9N3       0.408000
     41 H12         -1.9070     2.1120     1.2050 ha         1 9N3       0.141500
     42 H13          2.4950     3.4710    -2.7300 hc         1 9N3       0.036589
     43 H14          3.2390     4.9980    -2.2450 hc         1 9N3       0.036589
     44 H15          3.9530     3.4740    -1.7370 hc         1 9N3       0.036589
     45 H16          0.2110     4.9060    -0.0930 hc         1 9N3       0.036589
     46 H17          1.1420     5.8430    -1.2530 hc         1 9N3       0.036589
     47 H18          0.2960     4.3950    -1.7840 hc         1 9N3       0.036589
     48 H19          3.8280     4.2380     0.7210 hc         1 9N3       0.036589
     49 H20          3.1430     5.7600     0.1660 hc         1 9N3       0.036589
     50 H21          2.2930     4.8000     1.3800 hc         1 9N3       0.036589
     51 H22          4.5660     0.0310     1.3290 hc         1 9N3       0.056700
     52 H23          3.4570    -1.3270     1.4230 hc         1 9N3       0.056700
     53 H24          3.6270    -1.6350    -1.0540 hc         1 9N3       0.056700
     54 H25          4.7310    -0.2690    -1.1450 hc         1 9N3       0.056700
     55 H26          4.4930    -3.8200    -0.5890 ha         1 9N3       0.140000
     56 H27          6.4440    -5.2510    -0.0060 ha         1 9N3       0.137000
     57 H28          8.6390    -1.6600     0.7720 h4         1 9N3       0.018100
     58 H29          8.5760    -4.1360     0.6960 ha         1 9N3       0.142000
     59 S1          -5.4130    -1.2030     0.6040 sy         1 9N3       1.081300
@<TRIPOS>BOND
     1     1     4 ar  
     2     1     8 ar  
     3     1    18 1   
     4     2     3 ar  
     5     2     5 ar  
     6     2    30 1   
     7     3     4 ar  
     8     3    22 1   
     9     4    31 1   
    10     5     7 1   
    11     5     8 ar  
    12     6     7 ar  
    13     6    10 ar  
    14     6    32 1   
    15     7    17 ar  
    16     8    33 1   
    17     9    16 ar  
    18     9    17 ar  
    19     9    34 1   
    20    10    16 ar  
    21    10    35 1   
    22    11    59 2   
    23    12    59 2   
    24    13    14 1   
    25    13    36 1   
    26    13    37 1   
    27    13    59 1   
    28    14    15 1   
    29    14    38 1   
    30    14    39 1   
    31    15    40 1   
    32    16    59 1   
    33    17    41 1   
    34    18    19 1   
    35    18    20 1   
    36    18    21 1   
    37    19    42 1   
    38    19    43 1   
    39    19    44 1   
    40    20    45 1   
    41    20    46 1   
    42    20    47 1   
    43    21    48 1   
    44    21    49 1   
    45    21    50 1   
    46    22    23 1   
    47    22    51 1   
    48    22    52 1   
    49    23    24 1   
    50    23    53 1   
    51    23    54 1   
    52    24    25 ar  
    53    24    27 ar  
    54    25    26 ar  
    55    25    55 1   
    56    26    29 ar  
    57    26    56 1   
    58    27    28 ar  
    59    28    29 ar  
    60    28    57 1   
    61    29    58 1   
@<TRIPOS>SUBSTRUCTURE
     1 9N3         1 TEMP              0 ****  ****    0 ROOT
