@<TRIPOS>MOLECULE
9N3
   59    61     1     0     0
SMALL
No Charge or Current Charge


@<TRIPOS>ATOM
      1 C2           1.8630     2.6880    -0.1840 ca         1 9N3      -0.063300
      2 C5           1.3670    -0.0090     0.5380 ca         1 9N3      -0.092000
      3 C4           2.6870     0.4630     0.4620 ca         1 9N3      -0.080300
      4 C3           2.9260     1.8010     0.1020 ca         1 9N3      -0.093000
      5 C6           0.2710     0.8410     0.2630 cp         1 9N3      -0.057000
      6 C11         -1.4620    -0.9860    -0.0570 ca         1 9N3      -0.123500
      7 C10         -1.1360     0.3320     0.3460 cp         1 9N3       0.033000
      8 C1           0.5410     2.1850    -0.0970 ca         1 9N3      -0.092000
      9 C8          -3.5050     0.6790     0.9100 ca         1 9N3      -0.014500
     10 C12         -2.7800    -1.4680     0.0180 ca         1 9N3      -0.014500
     11 O2          -6.2370    -0.4590     1.5950 o          1 9N3      -0.523500
     12 O1          -5.4750    -2.7140     0.6540 o          1 9N3      -0.523500
     13 C20         -6.1770    -0.8050    -1.0110 c3         1 9N3      -0.309400
     14 C21         -7.6370    -1.2420    -1.1450 c3         1 9N3       0.192600
     15 O3          -8.0960    -0.8560    -2.4400 oh         1 9N3      -0.653000
     16 C7          -3.8080    -0.6370     0.5060 ca         1 9N3      -0.271500
     17 C9          -2.1850     1.1530     0.8300 ca         1 9N3      -0.123500
     18 C22          2.1820     4.1550    -0.5820 c3         1 9N3       0.000300
     19 C25          3.0490     4.1590    -1.8700 c3         1 9N3      -0.083767
     20 C24          0.9090     5.0040    -0.8600 c3         1 9N3      -0.083767
     21 C23          2.9670     4.8400     0.5700 c3         1 9N3      -0.083767
     22 C13          3.8540    -0.4690     0.7590 c3         1 9N3      -0.029100
     23 C14          4.4070    -1.1290    -0.5220 c3         1 9N3      -0.124700
     24 C18          5.5610    -2.0780    -0.2350 ca         1 9N3       0.348300
     25 C17          5.3180    -3.3960     0.1960 ca         1 9N3      -0.159000
     26 C16          6.4050    -4.2450     0.4580 ca         1 9N3      -0.071000
     27 N1           6.8090    -1.5840    -0.4070 nb         1 9N3      -0.675000
     28 C19          7.8560    -2.4040    -0.1540 ca         1 9N3       0.340900
     29 C15          7.7000    -3.7320     0.2780 ca         1 9N3      -0.166000
     30 H1           1.1890    -1.0420     0.8260 ha         1 9N3       0.115000
     31 H2           3.9550     2.1460     0.0430 ha         1 9N3       0.118000
     32 H3          -0.6870    -1.6400    -0.4480 ha         1 9N3       0.123500
     33 H4          -0.3060     2.8230    -0.3230 ha         1 9N3       0.116000
     34 H5          -4.2860     1.3370     1.2880 ha         1 9N3       0.137000
     35 H6          -2.9940    -2.4850    -0.3070 ha         1 9N3       0.137000
     36 H7          -6.0890     0.2820    -1.1090 h1         1 9N3       0.107200
     37 H8          -5.5560    -1.2950    -1.7670 h1         1 9N3       0.107200
     38 H9          -7.7140    -2.3310    -1.0180 h1         1 9N3       0.037200
     39 H10         -8.2440    -0.7620    -0.3640 h1         1 9N3       0.037200
     40 H11         -9.0340    -1.1440    -2.5090 ho         1 9N3       0.447000
     41 H12         -1.9720     2.1660     1.1610 ha         1 9N3       0.123500
     42 H13          2.5280     3.6460    -2.6880 hc         1 9N3       0.036589
     43 H14          3.2620     5.1850    -2.1960 hc         1 9N3       0.036589
     44 H15          4.0100     3.6570    -1.7140 hc         1 9N3       0.036589
     45 H16          0.2660     5.0570     0.0270 hc         1 9N3       0.036589
     46 H17          1.1770     6.0330    -1.1330 hc         1 9N3       0.036589
     47 H18          0.3280     4.5860    -1.6910 hc         1 9N3       0.036589
     48 H19          3.9280     4.3470     0.7550 hc         1 9N3       0.036589
     49 H20          3.1760     5.8900     0.3320 hc         1 9N3       0.036589
     50 H21          2.3880     4.8120     1.5010 hc         1 9N3       0.036589
     51 H22          4.6610     0.0840     1.2560 hc         1 9N3       0.056700
     52 H23          3.5440    -1.2510     1.4640 hc         1 9N3       0.056700
     53 H24          3.5980    -1.6750    -1.0200 hc         1 9N3       0.056700
     54 H25          4.7220    -0.3450    -1.2210 hc         1 9N3       0.056700
     55 H26          4.2990    -3.7520     0.3240 ha         1 9N3       0.122000
     56 H27          6.2500    -5.2690     0.7920 ha         1 9N3       0.119000
     57 H28          8.8500    -1.9820    -0.3010 h4         1 9N3       0.018100
     58 H29          8.5740    -4.3490     0.4680 ha         1 9N3       0.124000
     59 S1          -5.5040    -1.2470     0.5950 sy         1 9N3       1.050500
@<TRIPOS>BOND
     1     1     4 ar  
     2     1     8 ar  
     3     1    18 1   
     4     2     3 ar  
     5     2     5 ar  
     6     2    30 1   
     7     3     4 ar  
     8     3    22 1   
     9     4    31 1   
    10     5     7 1   
    11     5     8 ar  
    12     6     7 ar  
    13     6    10 ar  
    14     6    32 1   
    15     7    17 ar  
    16     8    33 1   
    17     9    16 ar  
    18     9    17 ar  
    19     9    34 1   
    20    10    16 ar  
    21    10    35 1   
    22    11    59 2   
    23    12    59 2   
    24    13    14 1   
    25    13    36 1   
    26    13    37 1   
    27    13    59 1   
    28    14    15 1   
    29    14    38 1   
    30    14    39 1   
    31    15    40 1   
    32    16    59 1   
    33    17    41 1   
    34    18    19 1   
    35    18    20 1   
    36    18    21 1   
    37    19    42 1   
    38    19    43 1   
    39    19    44 1   
    40    20    45 1   
    41    20    46 1   
    42    20    47 1   
    43    21    48 1   
    44    21    49 1   
    45    21    50 1   
    46    22    23 1   
    47    22    51 1   
    48    22    52 1   
    49    23    24 1   
    50    23    53 1   
    51    23    54 1   
    52    24    25 ar  
    53    24    27 ar  
    54    25    26 ar  
    55    25    55 1   
    56    26    29 ar  
    57    26    56 1   
    58    27    28 ar  
    59    28    29 ar  
    60    28    57 1   
    61    29    58 1   
@<TRIPOS>SUBSTRUCTURE
     1 9N3         1 TEMP              0 ****  ****    0 ROOT
