@<TRIPOS>MOLECULE
9N4
   72    76     1     0     0
SMALL
No Charge or Current Charge


@<TRIPOS>ATOM
      1 N3           1.6440     0.8890    -2.3940 nc         1 9N4      -0.557100
      2 C4           1.6230    -0.8780    -0.7060 ca         1 9N4      -0.200900
      3 C5          -1.5910     0.5610     0.3300 c          1 9N4       0.589100
      4 C7          -0.2360     1.1380     0.7940 c3         1 9N4       0.020300
      5 C8           0.4040     2.4600    -1.2980 ca         1 9N4      -0.066200
      6 C10         -2.5210    -1.6710    -0.4790 ca         1 9N4      -0.053000
      7 C13          2.4990    -2.4900     0.8970 ca         1 9N4      -0.251000
      8 C15         -2.8070    -2.8830     0.1930 ca         1 9N4      -0.065800
      9 C17         -0.3290     2.2100     1.9390 c6         1 9N4      -0.062700
     10 C21         -0.3050     3.6680    -1.1680 ca         1 9N4      -0.098000
     11 C24         -4.4100    -3.4690    -1.5460 ca         1 9N4      -0.103000
     12 C26         -3.7580    -3.7710    -0.3430 ca         1 9N4      -0.109000
     13 C28         -2.0990    -3.2410     1.4980 c3         1 9N4      -0.048300
     14 C32          1.7330    -5.9830    -0.1350 c3         1 9N4       0.147900
     15 C18          2.0190    -3.5470     0.1140 ca         1 9N4       0.194100
     16 C19          1.3630    -3.2710    -1.1010 ca         1 9N4      -0.249000
     17 C12          1.1780    -1.9430    -1.5130 ca         1 9N4      -0.013000
     18 C11          2.3130    -1.1540     0.4900 ca         1 9N4       0.204100
     19 O20          2.7930    -0.0930     1.2310 os         1 9N4      -0.326100
     20 C31          3.4920    -0.2730     2.4750 c3         1 9N4       0.144900
     21 C1           1.3700     0.5050    -1.1340 cd         1 9N4       0.484400
     22 C9           1.0380     2.1260    -2.4660 ca         1 9N4       0.062400
     23 C23          1.0050     2.9800    -3.5790 ca         1 9N4      -0.054000
     24 C34          0.3060     4.2000    -3.4760 ca         1 9N4      -0.135000
     25 C33         -0.3490     4.5420    -2.2730 ca         1 9N4      -0.102000
     26 N2           0.6120     1.4410    -0.3920 na         1 9N4      -0.174600
     27 C29         -0.8660     1.5730     3.2560 c6         1 9N4      -0.073900
     28 C36         -0.9830     2.6190     4.3920 c6         1 9N4      -0.072900
     29 C37          0.3700     3.3240     4.6460 c6         1 9N4      -0.076400
     30 C35          0.9130     3.9660     3.3470 c6         1 9N4      -0.072900
     31 C30          1.0310     2.9210     2.2110 c6         1 9N4      -0.073900
     32 O14         -2.6060     1.2400     0.2130 o          1 9N4      -0.569100
     33 N6          -1.5530    -0.8040     0.0880 ns         1 9N4      -0.165000
     34 C25         -4.1010    -2.2870    -2.2340 ca         1 9N4      -0.109000
     35 C16         -3.1490    -1.3850    -1.7210 ca         1 9N4      -0.065800
     36 C27         -2.7930    -0.1600    -2.5620 c3         1 9N4      -0.048300
     37 H1           0.2590     0.2960     1.2870 h1         1 9N4       0.071700
     38 H2           3.0150    -2.7330     1.8200 ha         1 9N4       0.136000
     39 H3          -1.0590     2.9660     1.6250 hc         1 9N4       0.076700
     40 H4          -0.8130     3.9450    -0.2520 ha         1 9N4       0.130000
     41 H5          -5.1440    -4.1600    -1.9550 ha         1 9N4       0.114000
     42 H6          -3.9930    -4.7000     0.1730 ha         1 9N4       0.114500
     43 H7          -2.2720    -2.4760     2.2650 hc         1 9N4       0.045867
     44 H8          -2.4530    -4.1970     1.9050 hc         1 9N4       0.045867
     45 H9          -1.0170    -3.3310     1.3480 hc         1 9N4       0.045867
     46 H10          1.9900    -6.9010     0.4090 h1         1 9N4       0.044700
     47 H11          0.6410    -5.9450    -0.2400 h1         1 9N4       0.044700
     48 H12          2.1820    -6.0450    -1.1350 h1         1 9N4       0.044700
     49 H13          0.9870    -4.0680    -1.7350 ha         1 9N4       0.126000
     50 H14          0.6580    -1.7400    -2.4490 ha         1 9N4       0.128000
     51 H15          2.8530    -0.7770     3.2110 h1         1 9N4       0.045367
     52 H16          4.4020    -0.8680     2.3300 h1         1 9N4       0.045367
     53 H17          3.7850     0.7000     2.8900 h1         1 9N4       0.045367
     54 H18          1.5060     2.7030    -4.5030 ha         1 9N4       0.126000
     55 H19          0.2680     4.8760    -4.3270 ha         1 9N4       0.111000
     56 H20         -0.8890     5.4830    -2.1990 ha         1 9N4       0.111000
     57 H21         -1.8510     1.1160     3.0860 hc         1 9N4       0.044950
     58 H22         -0.1990     0.7600     3.5780 hc         1 9N4       0.044950
     59 H23         -1.7470     3.3650     4.1310 hc         1 9N4       0.042200
     60 H24         -1.3270     2.1310     5.3140 hc         1 9N4       0.042200
     61 H25          0.2520     4.0920     5.4210 hc         1 9N4       0.038200
     62 H26          1.0990     2.5980     5.0330 hc         1 9N4       0.038200
     63 H27          0.2480     4.7830     3.0320 hc         1 9N4       0.042200
     64 H28          1.8950     4.4200     3.5390 hc         1 9N4       0.042200
     65 H29          1.7930     2.1780     2.4780 hc         1 9N4       0.044950
     66 H30          1.3920     3.4240     1.3040 hc         1 9N4       0.044950
     67 H31         -0.6720    -1.2530     0.3060 hn         1 9N4       0.157000
     68 H32         -4.5950    -2.0790    -3.1810 ha         1 9N4       0.114500
     69 H33         -3.4000     0.7070    -2.2770 hc         1 9N4       0.045867
     70 H34         -1.7350     0.1130    -2.4650 hc         1 9N4       0.045867
     71 H35         -2.9720    -0.3440    -3.6280 hc         1 9N4       0.045867
     72 O22          2.2190    -4.8300     0.5740 os         1 9N4      -0.339100
@<TRIPOS>BOND
     1     1    21 2   
     2     1    22 1   
     3     2    17 ar  
     4     2    18 ar  
     5     2    21 1   
     6     3     4 1   
     7     3    32 2   
     8     3    33 1   
     9     4     9 1   
    10     4    26 1   
    11     4    37 1   
    12     5    10 ar  
    13     5    22 ar  
    14     5    26 1   
    15     6     8 ar  
    16     6    33 1   
    17     6    35 ar  
    18     7    15 ar  
    19     7    18 ar  
    20     7    38 1   
    21     8    12 ar  
    22     8    13 1   
    23     9    27 1   
    24     9    31 1   
    25     9    39 1   
    26    10    25 ar  
    27    10    40 1   
    28    11    12 ar  
    29    11    34 ar  
    30    11    41 1   
    31    12    42 1   
    32    13    43 1   
    33    13    44 1   
    34    13    45 1   
    35    14    46 1   
    36    14    47 1   
    37    14    48 1   
    38    14    72 1   
    39    15    16 ar  
    40    15    72 1   
    41    16    17 ar  
    42    16    49 1   
    43    17    50 1   
    44    18    19 1   
    45    19    20 1   
    46    20    51 1   
    47    20    52 1   
    48    20    53 1   
    49    21    26 1   
    50    22    23 ar  
    51    23    24 ar  
    52    23    54 1   
    53    24    25 ar  
    54    24    55 1   
    55    25    56 1   
    56    27    28 1   
    57    27    57 1   
    58    27    58 1   
    59    28    29 1   
    60    28    59 1   
    61    28    60 1   
    62    29    30 1   
    63    29    61 1   
    64    29    62 1   
    65    30    31 1   
    66    30    63 1   
    67    30    64 1   
    68    31    65 1   
    69    31    66 1   
    70    33    67 1   
    71    34    35 ar  
    72    34    68 1   
    73    35    36 1   
    74    36    69 1   
    75    36    70 1   
    76    36    71 1   
@<TRIPOS>SUBSTRUCTURE
     1 9N4         1 TEMP              0 ****  ****    0 ROOT
