@<TRIPOS>MOLECULE
9N4
   72    76     1     0     0
SMALL
bcc


@<TRIPOS>ATOM
      1 N3           1.8860     1.1410    -2.2110 nc         1 9N4      -0.557100
      2 C4           1.8440    -0.7830    -0.6830 ca         1 9N4      -0.200900
      3 C5          -1.6720     0.3350     0.1800 c          1 9N4       0.656100
      4 C7          -0.2990     0.8190     0.6540 c3         1 9N4      -0.009000
      5 C8           0.2530     2.4140    -1.2610 ca         1 9N4      -0.066200
      6 C10         -2.9160    -1.6570    -0.4690 ca         1 9N4       0.039600
      7 C13          3.2220    -2.1610     0.7490 ca         1 9N4      -0.269000
      8 C15         -3.6200    -2.4720     0.4220 ca         1 9N4      -0.065800
      9 C17         -0.3960     1.8490     1.7780 c6         1 9N4      -0.062700
     10 C21         -0.6070     3.5060    -1.1510 ca         1 9N4      -0.116000
     11 C24         -5.1760    -2.9750    -1.3530 ca         1 9N4      -0.121000
     12 C26         -4.7530    -3.1320    -0.0410 ca         1 9N4      -0.127000
     13 C28         -3.1580    -2.6400     1.8390 c3         1 9N4      -0.048300
     14 C32          2.5610    -5.6790     0.1770 c3         1 9N4       0.124700
     15 C18          2.6440    -3.3090     0.1970 ca         1 9N4       0.194100
     16 C19          1.6760    -3.2010    -0.7970 ca         1 9N4      -0.267000
     17 C12          1.2970    -1.9350    -1.2230 ca         1 9N4      -0.031000
     18 C11          2.8290    -0.9070     0.3100 ca         1 9N4       0.204100
     19 O20          3.3290     0.2450     0.7770 os         1 9N4      -0.302900
     20 C31          4.2910     0.2070     1.8150 c3         1 9N4       0.121700
     21 C1           1.4170     0.5460    -1.1530 cd         1 9N4       0.484400
     22 C9           1.1860     2.3170    -2.3070 ca         1 9N4       0.062400
     23 C23          1.2940     3.3310    -3.2590 ca         1 9N4      -0.072000
     24 C34          0.4550     4.4220    -3.1420 ca         1 9N4      -0.153000
     25 C33         -0.4830     4.5030    -2.1020 ca         1 9N4      -0.120000
     26 N2           0.4340     1.2660    -0.5200 na         1 9N4      -0.145300
     27 C29         -1.0920     1.2200     2.9890 c6         1 9N4      -0.073900
     28 C36         -1.1840     2.2050     4.1500 c6         1 9N4      -0.072900
     29 C37          0.1880     2.7440     4.5370 c6         1 9N4      -0.076400
     30 C35          0.8870     3.3640     3.3330 c6         1 9N4      -0.072900
     31 C30          0.9830     2.3710     2.1790 c6         1 9N4      -0.073900
     32 O14         -2.5830     1.1030    -0.0560 o          1 9N4      -0.569100
     33 N6          -1.7520    -1.0000    -0.0000 ns         1 9N4      -0.491100
     34 C25         -4.4620    -2.1660    -2.2210 ca         1 9N4      -0.127000
     35 C16         -3.3160    -1.4970    -1.7990 ca         1 9N4      -0.065800
     36 C27         -2.5420    -0.6460    -2.7610 c3         1 9N4      -0.048300
     37 H1           0.2640    -0.0320     1.0470 h1         1 9N4       0.071700
     38 H2           3.9770    -2.2830     1.5140 ha         1 9N4       0.154000
     39 H3          -1.0070     2.6940     1.4480 hc         1 9N4       0.076700
     40 H4          -1.3570     3.5820    -0.3790 ha         1 9N4       0.148000
     41 H5          -6.0630    -3.4900    -1.7000 ha         1 9N4       0.132000
     42 H6          -5.3100    -3.7710     0.6340 ha         1 9N4       0.132500
     43 H7          -2.9550    -1.6820     2.3190 hc         1 9N4       0.045867
     44 H8          -3.9090    -3.1600     2.4320 hc         1 9N4       0.045867
     45 H9          -2.2380    -3.2270     1.8960 hc         1 9N4       0.045867
     46 H10          3.0570    -6.4850     0.7110 h1         1 9N4       0.044700
     47 H11          1.4840    -5.7540     0.3470 h1         1 9N4       0.044700
     48 H12          2.7600    -5.7870    -0.8910 h1         1 9N4       0.044700
     49 H13          1.2150    -4.0690    -1.2470 ha         1 9N4       0.144000
     50 H14          0.5490    -1.8490    -2.0010 ha         1 9N4       0.146000
     51 H15          3.9010    -0.2800     2.7120 h1         1 9N4       0.045367
     52 H16          5.2040    -0.3040     1.5010 h1         1 9N4       0.045367
     53 H17          4.5290     1.2410     2.0500 h1         1 9N4       0.045367
     54 H18          2.0140     3.2560    -4.0620 ha         1 9N4       0.144000
     55 H19          0.5150     5.2260    -3.8640 ha         1 9N4       0.129000
     56 H20         -1.1350     5.3640    -2.0450 ha         1 9N4       0.129000
     57 H21         -2.0970     0.8800     2.7250 hc         1 9N4       0.044950
     58 H22         -0.5310     0.3310     3.3020 hc         1 9N4       0.044950
     59 H23         -1.8340     3.0380     3.8620 hc         1 9N4       0.042200
     60 H24         -1.6600     1.7210     5.0060 hc         1 9N4       0.042200
     61 H25          0.0930     3.4780     5.3410 hc         1 9N4       0.038200
     62 H26          0.8020     1.9260     4.9300 hc         1 9N4       0.038200
     63 H27          0.3340     4.2510     3.0070 hc         1 9N4       0.042200
     64 H28          1.8870     3.7060     3.6070 hc         1 9N4       0.042200
     65 H29          1.6100     1.5270     2.4830 hc         1 9N4       0.044950
     66 H30          1.4820     2.8370     1.3270 hc         1 9N4       0.044950
     67 H31         -0.9810    -1.5680     0.3210 hn         1 9N4       0.323500
     68 H32         -4.7870    -2.0580    -3.2480 ha         1 9N4       0.132500
     69 H33         -2.7430     0.4150    -2.6100 hc         1 9N4       0.045867
     70 H34         -1.4660    -0.7860    -2.6510 hc         1 9N4       0.045867
     71 H35         -2.8060    -0.8890    -3.7890 hc         1 9N4       0.045867
     72 O22          3.0920    -4.4720     0.6920 os         1 9N4      -0.315900
@<TRIPOS>BOND
     1     1    21 2   
     2     1    22 1   
     3     2    17 ar  
     4     2    18 ar  
     5     2    21 1   
     6     3     4 1   
     7     3    32 2   
     8     3    33 1   
     9     4     9 1   
    10     4    26 1   
    11     4    37 1   
    12     5    10 ar  
    13     5    22 ar  
    14     5    26 1   
    15     6     8 ar  
    16     6    33 1   
    17     6    35 ar  
    18     7    15 ar  
    19     7    18 ar  
    20     7    38 1   
    21     8    12 ar  
    22     8    13 1   
    23     9    27 1   
    24     9    31 1   
    25     9    39 1   
    26    10    25 ar  
    27    10    40 1   
    28    11    12 ar  
    29    11    34 ar  
    30    11    41 1   
    31    12    42 1   
    32    13    43 1   
    33    13    44 1   
    34    13    45 1   
    35    14    46 1   
    36    14    47 1   
    37    14    48 1   
    38    14    72 1   
    39    15    16 ar  
    40    15    72 1   
    41    16    17 ar  
    42    16    49 1   
    43    17    50 1   
    44    18    19 1   
    45    19    20 1   
    46    20    51 1   
    47    20    52 1   
    48    20    53 1   
    49    21    26 1   
    50    22    23 ar  
    51    23    24 ar  
    52    23    54 1   
    53    24    25 ar  
    54    24    55 1   
    55    25    56 1   
    56    27    28 1   
    57    27    57 1   
    58    27    58 1   
    59    28    29 1   
    60    28    59 1   
    61    28    60 1   
    62    29    30 1   
    63    29    61 1   
    64    29    62 1   
    65    30    31 1   
    66    30    63 1   
    67    30    64 1   
    68    31    65 1   
    69    31    66 1   
    70    33    67 1   
    71    34    35 ar  
    72    34    68 1   
    73    35    36 1   
    74    36    69 1   
    75    36    70 1   
    76    36    71 1   
@<TRIPOS>SUBSTRUCTURE
     1 9N4         1 TEMP              0 ****  ****    0 ROOT
