@<TRIPOS>MOLECULE
9N5
   47    48     1     0     0
SMALL
No Charge or Current Charge


@<TRIPOS>ATOM
      1 CAA         16.9430    63.5750    34.7990 ca         1 9N5      -0.051000
      2 CAB         17.8810    62.9830    33.9380 ca         1 9N5      -0.018000
      3 CAC         19.2330    62.9520    34.3340 ca         1 9N5       0.361900
      4 CAE         18.7730    64.0400    36.3430 ca         1 9N5       0.245000
      5 CAF         17.3930    64.1120    36.0190 ca         1 9N5      -0.049000
      6 CAG         19.2010    64.5840    37.5680 ca         1 9N5      -0.054000
      7 CAH         18.2860    65.1840    38.4520 ca         1 9N5      -0.115000
      8 CAI         16.9220    65.2490    38.1300 ca         1 9N5       0.151100
      9 CAJ         16.4740    64.7130    36.9040 ca         1 9N5      -0.173000
     10 CAK         17.4660    62.4220    32.6830 cg         1 9N5      -0.132000
     11 CAL         17.1070    61.9490    31.6220 c1         1 9N5      -0.211000
     12 CAN         14.6450    65.9100    38.8580 c3         1 9N5       0.316300
     13 CAO         14.0200    66.8560    39.9400 c          1 9N5       0.601100
     14 CAT         13.6800    67.0440    42.4930 c3         1 9N5       0.094100
     15 CAU         14.0630    66.1710    43.7000 c2         1 9N5       0.366200
     16 CAX         16.0050    63.4510    44.7520 c3         1 9N5       0.154900
     17 CAY         12.1360    67.1840    42.4580 c3         1 9N5      -0.102600
     18 CAZ         14.3430    68.4340    42.6640 c3         1 9N5      -0.102600
     19 NAD         19.6750    63.4680    35.5090 nb         1 9N5      -0.652000
     20 NAS         14.1560    66.4020    41.2450 ns         1 9N5      -0.482900
     21 NAV         14.8900    65.1770    43.6360 n2         1 9N5      -0.344700
     22 OAM         16.0770    65.8570    39.0360 os         1 9N5      -0.359100
     23 OAP         14.1750    64.5480    39.0150 os         1 9N5      -0.469000
     24 OAR         13.4500    67.9050    39.6560 o          1 9N5      -0.614100
     25 OAW         15.0770    64.5440    44.8820 os         1 9N5      -0.322000
     26 HAA         15.8900    63.6160    34.5260 ha         1 9N5       0.125000
     27 HAC         19.9900    62.5010    33.6930 h4         1 9N5       0.027100
     28 HAG         20.2540    64.5410    37.8330 ha         1 9N5       0.137000
     29 HAH         18.6360    65.5990    39.3930 ha         1 9N5       0.133000
     30 HAJ         15.4250    64.7520    36.6270 ha         1 9N5       0.123000
     31 HAL         16.7830    61.5350    30.6880 ha         1 9N5       0.260000
     32 HAN         14.3950    66.3060    37.8670 h2         1 9N5       0.055700
     33 HAQ         12.5250    63.2810    38.8100 h1         1 9N5       0.043033
     34 HAR         12.1360    64.9210    39.3650 h1         1 9N5       0.043033
     35 HAS         12.5740    64.6350    37.6620 h1         1 9N5       0.043033
     36 HAU         13.6040    66.4380    44.6490 h4         1 9N5       0.013800
     37 HAX         16.1510    62.9580    45.7210 h1         1 9N5       0.041700
     38 HAY         15.6300    62.7010    44.0420 h1         1 9N5       0.041700
     39 HAZ         16.9820    63.8060    44.4000 h1         1 9N5       0.041700
     40 HA1         11.7610    67.5910    43.4050 hc         1 9N5       0.053533
     41 HA2         11.8050    67.8560    41.6580 hc         1 9N5       0.053533
     42 HA0         11.6610    66.2070    42.3000 hc         1 9N5       0.053533
     43 HA3         14.0570    68.8840    43.6230 hc         1 9N5       0.053533
     44 HA4         15.4360    68.3460    42.6450 hc         1 9N5       0.053533
     45 HA5         14.0430    69.1290    41.8710 hc         1 9N5       0.053533
     46 HA6         14.6490    65.5190    41.3350 hn         1 9N5       0.356500
     47 CAQ         12.7860    64.3410    38.6980 c3         1 9N5       0.153900
@<TRIPOS>BOND
     1     1     2 ar  
     2     1     5 ar  
     3     1    26 1   
     4     2     3 ar  
     5     2    10 1   
     6     3    19 ar  
     7     3    27 1   
     8     4     5 ar  
     9     4     6 ar  
    10     4    19 ar  
    11     5     9 ar  
    12     6     7 ar  
    13     6    28 1   
    14     7     8 ar  
    15     7    29 1   
    16     8     9 ar  
    17     8    22 1   
    18     9    30 1   
    19    10    11 3   
    20    11    31 1   
    21    12    13 1   
    22    12    22 1   
    23    12    23 1   
    24    12    32 1   
    25    13    20 1   
    26    13    24 2   
    27    14    15 1   
    28    14    17 1   
    29    14    18 1   
    30    14    20 1   
    31    15    21 2   
    32    15    36 1   
    33    16    25 1   
    34    16    37 1   
    35    16    38 1   
    36    16    39 1   
    37    17    40 1   
    38    17    41 1   
    39    17    42 1   
    40    18    43 1   
    41    18    44 1   
    42    18    45 1   
    43    20    46 1   
    44    21    25 1   
    45    23    47 1   
    46    33    47 1   
    47    34    47 1   
    48    35    47 1   
@<TRIPOS>SUBSTRUCTURE
     1 9N5         1 TEMP              0 ****  ****    0 ROOT
