@<TRIPOS>MOLECULE
9N5
   47    48     1     0     0
SMALL
abcg2


@<TRIPOS>ATOM
      1 CAA         17.0660    63.9020    34.9970 ca         1 9N5      -0.051000
      2 CAB         18.1100    63.3450    34.2880 ca         1 9N5      -0.018000
      3 CAC         19.1620    62.7210    35.0180 ca         1 9N5       0.361900
      4 CAE         18.1710    63.1940    37.0360 ca         1 9N5       0.245000
      5 CAF         17.0710    63.8420    36.4040 ca         1 9N5      -0.049000
      6 CAG         18.1950    63.1200    38.4480 ca         1 9N5      -0.054000
      7 CAH         17.1830    63.6650    39.1880 ca         1 9N5      -0.115000
      8 CAI         16.0950    64.3120    38.5530 ca         1 9N5       0.151100
      9 CAJ         16.0270    64.3950    37.1860 ca         1 9N5      -0.173000
     10 CAK         18.1620    63.3790    32.8660 cg         1 9N5      -0.132000
     11 CAL         18.2240    63.3970    31.6640 c1         1 9N5      -0.211000
     12 CAN         14.0870    65.5800    38.9380 c3         1 9N5       0.316300
     13 CAO         13.4850    66.3830    40.1110 c          1 9N5       0.601100
     14 CAT         13.7440    66.9000    42.5440 c3         1 9N5       0.094100
     15 CAU         14.7490    66.4740    43.5860 c2         1 9N5       0.366200
     16 CAX         17.5640    64.5200    43.9810 c3         1 9N5       0.154900
     17 CAY         12.3490    66.4480    43.0090 c3         1 9N5      -0.102600
     18 CAZ         13.8060    68.4310    42.4160 c3         1 9N5      -0.102600
     19 NAD         19.1960    62.6470    36.3250 nb         1 9N5      -0.652000
     20 NAS         14.1100    66.2510    41.2830 ns         1 9N5      -0.482900
     21 NAV         15.7020    65.6940    43.2970 n2         1 9N5      -0.344700
     22 OAM         15.1670    64.8210    39.4190 os         1 9N5      -0.359100
     23 OAP         13.1340    64.7010    38.4040 os         1 9N5      -0.469000
     24 OAR         12.4950    67.0760    39.8900 o          1 9N5      -0.614100
     25 OAW         16.5270    65.4170    44.3870 os         1 9N5      -0.322000
     26 HAA         16.2450    64.3850    34.4820 ha         1 9N5       0.125000
     27 HAC         19.9890    62.2800    34.4720 h4         1 9N5       0.027100
     28 HAG         19.0310    62.6280    38.9270 ha         1 9N5       0.137000
     29 HAH         17.1930    63.6200    40.2700 ha         1 9N5       0.133000
     30 HAJ         15.1980    64.8640    36.6790 ha         1 9N5       0.123000
     31 HAL         18.2750    63.4180    30.6000 ha         1 9N5       0.260000
     32 HAN         14.4230    66.2960    38.1780 h2         1 9N5       0.055700
     33 HAQ         11.8200    64.3740    36.8970 h1         1 9N5       0.043033
     34 HAR         11.6390    65.9660    37.6810 h1         1 9N5       0.043033
     35 HAS         12.9950    65.6720    36.5630 h1         1 9N5       0.043033
     36 HAU         14.6130    66.8700    44.5910 h4         1 9N5       0.013800
     37 HAX         18.1660    64.3500    44.8720 h1         1 9N5       0.041700
     38 HAY         17.1430    63.5770    43.6290 h1         1 9N5       0.041700
     39 HAZ         18.1780    64.9690    43.1970 h1         1 9N5       0.041700
     40 HA1         12.1230    66.8860    43.9820 hc         1 9N5       0.053533
     41 HA2         11.5970    66.7750    42.2940 hc         1 9N5       0.053533
     42 HA0         12.3120    65.3620    43.0940 hc         1 9N5       0.053533
     43 HA3         13.5950    68.8910    43.3830 hc         1 9N5       0.053533
     44 HA4         14.7980    68.7450    42.0870 hc         1 9N5       0.053533
     45 HA5         13.0660    68.7730    41.6960 hc         1 9N5       0.053533
     46 HA6         14.9150    65.6410    41.3130 hn         1 9N5       0.356500
     47 CAQ         12.3520    65.2220    37.3260 c3         1 9N5       0.153900
@<TRIPOS>BOND
     1     1     2 ar  
     2     1     5 ar  
     3     1    26 1   
     4     2     3 ar  
     5     2    10 1   
     6     3    19 ar  
     7     3    27 1   
     8     4     5 ar  
     9     4     6 ar  
    10     4    19 ar  
    11     5     9 ar  
    12     6     7 ar  
    13     6    28 1   
    14     7     8 ar  
    15     7    29 1   
    16     8     9 ar  
    17     8    22 1   
    18     9    30 1   
    19    10    11 3   
    20    11    31 1   
    21    12    13 1   
    22    12    22 1   
    23    12    23 1   
    24    12    32 1   
    25    13    20 1   
    26    13    24 2   
    27    14    15 1   
    28    14    17 1   
    29    14    18 1   
    30    14    20 1   
    31    15    21 2   
    32    15    36 1   
    33    16    25 1   
    34    16    37 1   
    35    16    38 1   
    36    16    39 1   
    37    17    40 1   
    38    17    41 1   
    39    17    42 1   
    40    18    43 1   
    41    18    44 1   
    42    18    45 1   
    43    20    46 1   
    44    21    25 1   
    45    23    47 1   
    46    33    47 1   
    47    34    47 1   
    48    35    47 1   
@<TRIPOS>SUBSTRUCTURE
     1 9N5         1 TEMP              0 ****  ****    0 ROOT
