@<TRIPOS>MOLECULE
9N7
   66    71     1     0     0
SMALL
No Charge or Current Charge


@<TRIPOS>ATOM
      1 N1          -1.9820    -0.6120     0.0020 na         1 9N7      -0.159600
      2 N3          -1.6110    -2.6370     1.0640 nc         1 9N7      -0.556100
      3 C4          -2.9740    -0.8130     0.9370 ca         1 9N7      -0.045200
      4 C5          -2.7460    -2.0190     1.5450 ca         1 9N7       0.069400
      5 C6          -1.1230     1.6940     0.4440 c          1 9N7       0.582100
      6 C7          -1.6330     0.6950    -0.6230 c3         1 9N7       0.002300
      7 C8          -4.0680    -0.0020     1.2950 ca         1 9N7      -0.112000
      8 C10         -3.6020    -2.5010     2.5460 ca         1 9N7      -0.071000
      9 C13         -4.9400    -0.4680     2.2970 ca         1 9N7       0.138000
     10 C15         -4.7090    -1.7160     2.9210 ca         1 9N7       0.106000
     11 C20          3.0430     3.8250     3.0230 ca         1 9N7      -0.141600
     12 C21          5.2060    -2.9940    -4.3860 cc         1 9N7       0.267900
     13 C22          6.0420    -3.4730    -3.4110 cd         1 9N7      -0.278000
     14 C24          1.1860    -2.6140     0.0930 ca         1 9N7      -0.086000
     15 C26          2.3910    -2.8850    -0.5780 ca         1 9N7      -0.089000
     16 C28         -2.6840     1.3010    -1.6240 c6         1 9N7      -0.062700
     17 C2          -1.1700    -1.7650     0.1360 cd         1 9N7       0.471400
     18 F33         -5.5470    -2.1620     3.8850 f          1 9N7      -0.171000
     19 F32         -6.0000     0.2900     2.6610 f          1 9N7      -0.168000
     20 C14          0.1010    -2.0140    -0.5780 ca         1 9N7      -0.118900
     21 C18          2.5370    -2.5850    -1.9520 ca         1 9N7      -0.115500
     22 C9           3.8050    -2.8710    -2.6720 cd         1 9N7       0.459900
     23 N11          3.9420    -2.6510    -3.9770 nc         1 9N7      -0.652000
     24 S17          5.2330    -3.5150    -1.8560 ss         1 9N7       0.053600
     25 C27          1.4320    -2.0240    -2.6320 ca         1 9N7      -0.089000
     26 C25          0.2300    -1.7530    -1.9570 ca         1 9N7      -0.086000
     27 C29          1.1480     2.4290     1.4200 ca         1 9N7      -0.079000
     28 C35          0.7310     3.4600     2.2870 ca         1 9N7      -0.170000
     29 C30          1.6680     4.1480     3.0790 ca         1 9N7      -0.069000
     30 O23          3.6540     5.4570     4.6210 o          1 9N7      -0.718500
     31 O34          5.2340     4.2580     3.7970 o          1 9N7      -0.718500
     32 C31          3.4530     2.7930     2.1500 ca         1 9N7      -0.069000
     33 C36          2.5150     2.1070     1.3600 ca         1 9N7      -0.170000
     34 C37         -3.3180     0.2320    -2.5650 c6         1 9N7      -0.076400
     35 C40         -4.3560     0.8630    -3.5260 c6         1 9N7      -0.072900
     36 C41         -3.7270     2.0060    -4.3560 c6         1 9N7      -0.076400
     37 C39         -3.0960     3.0780    -3.4360 c6         1 9N7      -0.072900
     38 C38         -2.0590     2.4500    -2.4710 c6         1 9N7      -0.076400
     39 H1          -0.7570     0.5010    -1.2500 h1         1 9N7       0.071700
     40 H2          -4.2510     0.9610     0.8330 ha         1 9N7       0.145000
     41 H3          -3.4140    -3.4580     3.0240 ha         1 9N7       0.146000
     42 H4           0.7360     1.0260    -0.0120 hn         1 9N7       0.141000
     43 H5           5.4570    -2.8670    -5.4310 h4         1 9N7       0.035100
     44 H6           7.0700    -3.7980    -3.5140 h4         1 9N7       0.163000
     45 H7           1.1050    -2.8590     1.1510 ha         1 9N7       0.129500
     46 H8           3.2030    -3.3350    -0.0130 ha         1 9N7       0.135000
     47 H9          -3.4920     1.7400    -1.0250 hc         1 9N7       0.073700
     48 H10          1.4950    -1.7990    -3.6950 ha         1 9N7       0.135000
     49 H11         -0.6070    -1.3510    -2.5200 ha         1 9N7       0.129500
     50 H12         -0.3120     3.7480     2.3640 ha         1 9N7       0.103000
     51 H13          1.3170     4.9390     3.7390 ha         1 9N7       0.130500
     52 H15          4.5030     2.5180     2.0800 ha         1 9N7       0.130500
     53 H16          2.8580     1.3160     0.6960 ha         1 9N7       0.103000
     54 H17         -2.5350    -0.2630    -3.1540 hc         1 9N7       0.047200
     55 H18         -3.8120    -0.5540    -1.9770 hc         1 9N7       0.047200
     56 H19         -4.7570     0.0920    -4.1980 hc         1 9N7       0.041200
     57 H20         -5.2080     1.2480    -2.9490 hc         1 9N7       0.041200
     58 H21         -2.9610     1.5980    -5.0300 hc         1 9N7       0.037200
     59 H22         -4.4920     2.4670    -4.9960 hc         1 9N7       0.037200
     60 H23         -2.6140     3.8550    -4.0460 hc         1 9N7       0.041200
     61 H24         -3.8840     3.5800    -2.8570 hc         1 9N7       0.041200
     62 H25         -1.6600     3.2360    -1.8160 hc         1 9N7       0.047200
     63 H26         -1.2070     2.0670    -3.0510 hc         1 9N7       0.047200
     64 N12          0.2620     1.6890     0.5880 ns         1 9N7      -0.125000
     65 O19         -1.8820     2.4170     1.0820 o          1 9N7      -0.571100
     66 C16          4.0540     4.5700     3.8790 c          1 9N7       0.713600
@<TRIPOS>BOND
     1     1     3 1   
     2     1     6 1   
     3     1    17 1   
     4     2     4 1   
     5     2    17 2   
     6     3     4 ar  
     7     3     7 ar  
     8     4     8 ar  
     9     5     6 1   
    10     5    64 1   
    11     5    65 2   
    12     6    16 1   
    13     6    39 1   
    14     7     9 ar  
    15     7    40 1   
    16     8    10 ar  
    17     8    41 1   
    18     9    10 ar  
    19     9    19 1   
    20    10    18 1   
    21    11    29 ar  
    22    11    32 ar  
    23    11    66 1   
    24    12    13 2   
    25    12    23 1   
    26    12    43 1   
    27    13    24 1   
    28    13    44 1   
    29    14    15 ar  
    30    14    20 ar  
    31    14    45 1   
    32    15    21 ar  
    33    15    46 1   
    34    16    34 1   
    35    16    38 1   
    36    16    47 1   
    37    17    20 1   
    38    20    26 ar  
    39    21    22 1   
    40    21    25 ar  
    41    22    23 2   
    42    22    24 1   
    43    25    26 ar  
    44    25    48 1   
    45    26    49 1   
    46    27    28 ar  
    47    27    33 ar  
    48    27    64 1   
    49    28    29 ar  
    50    28    50 1   
    51    29    51 1   
    52    30    66 1   
    53    31    66 1   
    54    32    33 ar  
    55    32    52 1   
    56    33    53 1   
    57    34    35 1   
    58    34    54 1   
    59    34    55 1   
    60    35    36 1   
    61    35    56 1   
    62    35    57 1   
    63    36    37 1   
    64    36    58 1   
    65    36    59 1   
    66    37    38 1   
    67    37    60 1   
    68    37    61 1   
    69    38    62 1   
    70    38    63 1   
    71    42    64 1   
@<TRIPOS>SUBSTRUCTURE
     1 9N7         1 TEMP              0 ****  ****    0 ROOT
