@<TRIPOS>MOLECULE
9N7
   66    71     1     0     0
SMALL
bcc


@<TRIPOS>ATOM
      1 N1          -2.2210    -0.7390    -0.0130 na         1 9N7      -0.130300
      2 N3          -1.9900    -2.6830     1.0710 nc         1 9N7      -0.556100
      3 C4          -3.3400    -0.8730     0.7780 ca         1 9N7      -0.045200
      4 C5          -3.1830    -2.1100     1.4230 ca         1 9N7       0.069400
      5 C6          -0.9320     1.2770     0.2440 c          1 9N7       0.649100
      6 C7          -1.7320     0.4230    -0.7450 c3         1 9N7      -0.027000
      7 C8          -4.4610    -0.0760     1.0040 ca         1 9N7      -0.130000
      8 C10         -4.1560    -2.5990     2.2950 ca         1 9N7      -0.089000
      9 C13         -5.4050    -0.5760     1.8690 ca         1 9N7       0.102900
     10 C15         -5.2600    -1.8140     2.5030 ca         1 9N7       0.070900
     11 C20          3.6730     2.9430     2.0410 ca         1 9N7      -0.141600
     12 C21          5.5660    -2.0800    -3.2160 cc         1 9N7       0.333200
     13 C22          6.2880    -1.6670    -2.1400 cd         1 9N7      -0.216400
     14 C24          0.9860    -1.9430     0.5850 ca         1 9N7      -0.104000
     15 C26          2.2870    -1.9580     0.1160 ca         1 9N7      -0.107000
     16 C28         -2.7910     1.2360    -1.4910 c6         1 9N7      -0.062700
     17 C2          -1.4450    -1.8480     0.2370 cd         1 9N7       0.471400
     18 F33         -6.2320    -2.2150     3.3330 f          1 9N7      -0.135900
     19 F32         -6.5060     0.1380     2.1300 f          1 9N7      -0.132900
     20 C14         -0.0840    -1.9860    -0.3040 ca         1 9N7      -0.118900
     21 C18          2.5460    -2.0190    -1.2520 ca         1 9N7      -0.115500
     22 C9           3.9100    -1.9660    -1.7740 cd         1 9N7       0.459900
     23 N11          4.2330    -2.2420    -3.0010 nc         1 9N7      -0.652000
     24 S17          5.2510    -1.4710    -0.7950 ss         1 9N7      -0.091300
     25 C27          1.4720    -2.1120    -2.1400 ca         1 9N7      -0.107000
     26 C25          0.1710    -2.0950    -1.6700 ca         1 9N7      -0.104000
     27 C29          1.4310     1.9320     0.6780 ca         1 9N7       0.013600
     28 C35          1.2610     2.7640     1.7830 ca         1 9N7      -0.188000
     29 C30          2.3790     3.2530     2.4450 ca         1 9N7      -0.087000
     30 O23          4.6520     4.2260     3.7620 o          1 9N7      -0.823800
     31 O34          6.0010     3.1460     2.3550 o          1 9N7      -0.823800
     32 C31          3.8250     2.1140     0.9320 ca         1 9N7      -0.087000
     33 C36          2.7250     1.6150     0.2590 ca         1 9N7      -0.188000
     34 C37         -3.6560     0.3490    -2.3890 c6         1 9N7      -0.076400
     35 C40         -4.6430     1.1800    -3.2040 c6         1 9N7      -0.072900
     36 C41         -3.9310     2.2440    -4.0320 c6         1 9N7      -0.076400
     37 C39         -3.0700     3.1320    -3.1420 c6         1 9N7      -0.072900
     38 C38         -2.0810     2.3080    -2.3270 c6         1 9N7      -0.076400
     39 H1          -1.0700     0.0290    -1.5170 h1         1 9N7       0.071700
     40 H2          -4.6190     0.8930     0.5560 ha         1 9N7       0.163000
     41 H3          -4.0430    -3.5530     2.7930 ha         1 9N7       0.164000
     42 H4           0.6760     0.8980    -0.9010 hn         1 9N7       0.307500
     43 H5           5.9810    -2.2790    -4.1930 h4         1 9N7       0.035100
     44 H6           7.3470    -1.4760    -2.0730 h4         1 9N7       0.181000
     45 H7           0.8040    -1.8670     1.6490 ha         1 9N7       0.147500
     46 H8           3.0960    -1.9090     0.8340 ha         1 9N7       0.153000
     47 H9          -3.4300     1.7590    -0.7750 hc         1 9N7       0.073700
     48 H10          1.6550    -2.1760    -3.2040 ha         1 9N7       0.153000
     49 H11         -0.6490    -2.1540    -2.3760 ha         1 9N7       0.147500
     50 H12          0.2770     3.0340     2.1300 ha         1 9N7       0.121000
     51 H13          2.2350     3.8980     3.3010 ha         1 9N7       0.148500
     52 H15          4.8170     1.8530     0.5900 ha         1 9N7       0.148500
     53 H16          2.8690     0.9680    -0.5990 ha         1 9N7       0.121000
     54 H17         -3.0040    -0.2130    -3.0670 hc         1 9N7       0.047200
     55 H18         -4.2020    -0.3890    -1.7980 hc         1 9N7       0.047200
     56 H19         -5.2290     0.5210    -3.8480 hc         1 9N7       0.041200
     57 H20         -5.3540     1.6640    -2.5260 hc         1 9N7       0.041200
     58 H21         -3.2990     1.7580    -4.7830 hc         1 9N7       0.037200
     59 H22         -4.6590     2.8470    -4.5800 hc         1 9N7       0.037200
     60 H23         -2.5290     3.8660    -3.7430 hc         1 9N7       0.041200
     61 H24         -3.7140     3.6980    -2.4620 hc         1 9N7       0.041200
     62 H25         -1.4960     2.9730    -1.6870 hc         1 9N7       0.047200
     63 H26         -1.3700     1.8200    -3.0060 hc         1 9N7       0.047200
     64 N12          0.3800     1.3730    -0.0610 ns         1 9N7      -0.451100
     65 O19         -1.4700     1.7660     1.2180 o          1 9N7      -0.571100
     66 C16          4.8830     3.4870     2.7850 c          1 9N7       0.924200
@<TRIPOS>BOND
     1     1     3 1   
     2     1     6 1   
     3     1    17 1   
     4     2     4 1   
     5     2    17 2   
     6     3     4 ar  
     7     3     7 ar  
     8     4     8 ar  
     9     5     6 1   
    10     5    64 1   
    11     5    65 2   
    12     6    16 1   
    13     6    39 1   
    14     7     9 ar  
    15     7    40 1   
    16     8    10 ar  
    17     8    41 1   
    18     9    10 ar  
    19     9    19 1   
    20    10    18 1   
    21    11    29 ar  
    22    11    32 ar  
    23    11    66 1   
    24    12    13 2   
    25    12    23 1   
    26    12    43 1   
    27    13    24 1   
    28    13    44 1   
    29    14    15 ar  
    30    14    20 ar  
    31    14    45 1   
    32    15    21 ar  
    33    15    46 1   
    34    16    34 1   
    35    16    38 1   
    36    16    47 1   
    37    17    20 1   
    38    20    26 ar  
    39    21    22 1   
    40    21    25 ar  
    41    22    23 2   
    42    22    24 1   
    43    25    26 ar  
    44    25    48 1   
    45    26    49 1   
    46    27    28 ar  
    47    27    33 ar  
    48    27    64 1   
    49    28    29 ar  
    50    28    50 1   
    51    29    51 1   
    52    30    66 1   
    53    31    66 1   
    54    32    33 ar  
    55    32    52 1   
    56    33    53 1   
    57    34    35 1   
    58    34    54 1   
    59    34    55 1   
    60    35    36 1   
    61    35    56 1   
    62    35    57 1   
    63    36    37 1   
    64    36    58 1   
    65    36    59 1   
    66    37    38 1   
    67    37    60 1   
    68    37    61 1   
    69    38    62 1   
    70    38    63 1   
    71    42    64 1   
@<TRIPOS>SUBSTRUCTURE
     1 9N7         1 TEMP              0 ****  ****    0 ROOT
