@<TRIPOS>MOLECULE
9N8
   35    37     1     0     0
SMALL
abcg2


@<TRIPOS>ATOM
      1 C1          40.6070    -1.4860     7.3990 ca         1 9N8      -0.105000
      2 C2          40.9700    -0.2240     6.9410 ca         1 9N8      -0.078000
      3 C3          41.0190     0.8600     7.8080 ca         1 9N8      -0.141000
      4 C4          40.6940     0.6480     9.1340 ca         1 9N8       0.189000
      5 C5          40.3170    -0.5880     9.6390 ca         1 9N8      -0.167600
      6 C6          39.9410    -0.7230    11.0980 c          1 9N8       0.636300
      7 C7          41.0280    -0.9260    12.0320 cc         1 9N8      -0.260600
      8 C8          40.8950    -1.0530    13.4180 cd         1 9N8      -0.078000
      9 C11         46.7670    -1.4920    12.3280 ca         1 9N8      -0.075000
     10 C12         47.4670    -1.3390    11.1280 ca         1 9N8      -0.130000
     11 C15         47.5050    -1.7720    13.4860 ca         1 9N8       0.321900
     12 C16         42.4170    -1.0330    11.7370 cc         1 9N8      -0.072000
     13 O1          38.7650    -0.6440    11.4240 o          1 9N8      -0.506100
     14 F           40.7420     1.6920     9.9960 f          1 9N8      -0.171000
     15 C           40.2880    -1.6500     8.7400 ca         1 9N8       0.033100
     16 BR          39.8170    -3.3950     9.3680 br         1 9N8      -0.082100
     17 C9          43.0750    -1.2170    12.9340 cd         1 9N8      -0.267600
     18 N           42.1200    -1.2250    13.9320 na         1 9N8      -0.064000
     19 C10         44.4810    -1.3960    13.3180 c          1 9N8       0.650700
     20 O           44.7900    -1.5620    14.4980 o          1 9N8      -0.602100
     21 N1          45.3740    -1.3610    12.2890 ns         1 9N8      -0.129000
     22 N2          48.8350    -1.8930    13.4770 nb         1 9N8      -0.644000
     23 C14         49.4910    -1.7430    12.3260 ca         1 9N8       0.310900
     24 C13         48.8430    -1.4660    11.1270 ca         1 9N8      -0.135000
     25 H           40.5760    -2.3290     6.7250 ha         1 9N8       0.137000
     26 H1          41.2180    -0.0870     5.8960 ha         1 9N8       0.125000
     27 H2          41.3030     1.8490     7.4730 ha         1 9N8       0.140000
     28 H3          40.0130    -1.0270    14.0360 h4         1 9N8       0.173000
     29 H6          46.9290    -1.1240    10.2120 ha         1 9N8       0.115000
     30 H9          47.0040    -1.8990    14.4320 h4         1 9N8       0.054100
     31 H10         42.8580    -0.9810    10.7550 ha         1 9N8       0.137000
     32 H4          42.3430    -1.3440    14.9100 hn         1 9N8       0.377000
     33 H5          44.9930    -1.1940    11.3690 hn         1 9N8       0.157000
     34 H8          50.5690    -1.8490    12.3600 h4         1 9N8       0.023100
     35 H7          49.4070    -1.3530    10.2110 ha         1 9N8       0.124000
@<TRIPOS>BOND
     1     1     2 ar  
     2     1    15 ar  
     3     1    25 1   
     4     2     3 ar  
     5     2    26 1   
     6     3     4 ar  
     7     3    27 1   
     8     4     5 ar  
     9     4    14 1   
    10     5     6 1   
    11     5    15 ar  
    12     6     7 1   
    13     6    13 2   
    14     7     8 2   
    15     7    12 1   
    16     8    18 1   
    17     8    28 1   
    18     9    10 ar  
    19     9    11 ar  
    20     9    21 1   
    21    10    24 ar  
    22    10    29 1   
    23    11    22 ar  
    24    11    30 1   
    25    12    17 2   
    26    12    31 1   
    27    15    16 1   
    28    17    18 1   
    29    17    19 1   
    30    18    32 1   
    31    19    20 2   
    32    19    21 1   
    33    21    33 1   
    34    22    23 ar  
    35    23    24 ar  
    36    23    34 1   
    37    24    35 1   
@<TRIPOS>SUBSTRUCTURE
     1 9N8         1 TEMP              0 ****  ****    0 ROOT
