@<TRIPOS>MOLECULE
9N8
   35    37     1     0     0
SMALL
No Charge or Current Charge


@<TRIPOS>ATOM
      1 C1          40.7240    -1.3170     7.2870 ca         1 9N8      -0.105000
      2 C2          41.4400    -0.1260     7.0830 ca         1 9N8      -0.078000
      3 C3          41.6680     0.7430     8.1630 ca         1 9N8      -0.141000
      4 C4          41.1870     0.4180     9.4410 ca         1 9N8       0.189000
      5 C5          40.4760    -0.7800     9.6600 ca         1 9N8      -0.167600
      6 C6          39.9600    -1.1090    11.0300 c          1 9N8       0.636300
      7 C7          40.9630    -1.1500    12.1270 cc         1 9N8      -0.260600
      8 C8          40.6650    -1.0270    13.4600 cd         1 9N8      -0.078000
      9 C11         46.6230    -1.4150    12.2530 ca         1 9N8      -0.075000
     10 C12         47.1430    -1.5190    10.9490 ca         1 9N8      -0.130000
     11 C15         47.5360    -1.3950    13.3390 ca         1 9N8       0.321900
     12 C16         42.3650    -1.2230    11.9760 cc         1 9N8      -0.072000
     13 O1          38.7580    -1.2210    11.2440 o          1 9N8      -0.506100
     14 F           41.3880     1.2930    10.4520 f          1 9N8      -0.171000
     15 C           40.2390    -1.6430     8.5660 ca         1 9N8       0.033100
     16 Br          39.3050    -3.3050     8.7880 br         1 9N8      -0.082100
     17 C9          42.9480    -1.1740    13.2190 cd         1 9N8      -0.267600
     18 N           41.8910    -1.0570    14.1390 na         1 9N8      -0.064000
     19 C10         44.4020    -1.2250    13.5300 c          1 9N8       0.650700
     20 O           44.8210    -1.1710    14.6800 o          1 9N8      -0.602100
     21 N1          45.2090    -1.3370    12.4050 ns         1 9N8      -0.129000
     22 N2          48.8810    -1.4700    13.1780 nb         1 9N8      -0.644000
     23 C14         49.3650    -1.5700    11.9190 ca         1 9N8       0.310900
     24 C13         48.5360    -1.5970    10.7850 ca         1 9N8      -0.135000
     25 H           40.5480    -1.9910     6.4520 ha         1 9N8       0.137000
     26 H1          41.8130     0.1240     6.0910 ha         1 9N8       0.125000
     27 H2          42.2120     1.6720     8.0100 ha         1 9N8       0.140000
     28 H3          39.7110    -0.9200    13.9670 h4         1 9N8       0.173000
     29 H6          46.4860    -1.5390    10.0820 ha         1 9N8       0.115000
     30 H9          47.2010    -1.3170    14.3700 h4         1 9N8       0.054100
     31 H10         42.8750    -1.3080    11.0190 ha         1 9N8       0.137000
     32 H4          41.9990    -0.9920    15.1480 hn         1 9N8       0.377000
     33 H5          44.6980    -1.3680    11.5330 hn         1 9N8       0.157000
     34 H8          50.4480    -1.6290    11.8170 h4         1 9N8       0.023100
     35 H7          48.9750    -1.6780     9.7940 ha         1 9N8       0.124000
@<TRIPOS>BOND
     1     1     2 ar  
     2     1    15 ar  
     3     1    25 1   
     4     2     3 ar  
     5     2    26 1   
     6     3     4 ar  
     7     3    27 1   
     8     4     5 ar  
     9     4    14 1   
    10     5     6 1   
    11     5    15 ar  
    12     6     7 1   
    13     6    13 2   
    14     7     8 2   
    15     7    12 1   
    16     8    18 1   
    17     8    28 1   
    18     9    10 ar  
    19     9    11 ar  
    20     9    21 1   
    21    10    24 ar  
    22    10    29 1   
    23    11    22 ar  
    24    11    30 1   
    25    12    17 2   
    26    12    31 1   
    27    15    16 1   
    28    17    18 1   
    29    17    19 1   
    30    18    32 1   
    31    19    20 2   
    32    19    21 1   
    33    21    33 1   
    34    22    23 ar  
    35    23    24 ar  
    36    23    34 1   
    37    24    35 1   
@<TRIPOS>SUBSTRUCTURE
     1 9N8         1 TEMP              0 ****  ****    0 ROOT
