@<TRIPOS>MOLECULE
9N9
   66    68     1     0     0
SMALL
bcc


@<TRIPOS>ATOM
      1 C8           1.2950     1.5040     0.1740 c2         1 9N9      -0.081400
      2 C5           4.5570    -0.1260    -0.6340 c2         1 9N9      -0.105400
      3 C6           3.6040     0.8010    -0.4480 ce         1 9N9      -0.112000
      4 C2           6.8250    -1.6990     0.1180 c2         1 9N9      -0.199400
      5 C4           5.9290     0.2610    -1.1010 c6         1 9N9      -0.032700
      6 C20         -4.8380     0.4960     0.7470 c          1 9N9       0.605300
      7 C22         -5.8140    -0.4350     0.2430 cg         1 9N9      -0.200200
      8 C23         -6.6300    -1.2300    -0.1650 ch         1 9N9      -0.082300
      9 C24         -7.5780    -2.1560    -0.6600 cf         1 9N9      -0.059700
     10 C25         -8.6680    -2.5100     0.0350 c2         1 9N9      -0.111200
     11 C26         -9.6910    -3.4710    -0.4460 c3         1 9N9      -0.068900
     12 C18         -3.7400     0.8960    -0.2210 c3         1 9N9      -0.136700
     13 C19         -4.2760     2.1070    -0.9950 c3         1 9N9      -0.085100
     14 C16         -2.4260     1.1250     0.5250 c5         1 9N9      -0.050700
     15 C15         -1.9660    -0.1610     1.2660 c5         1 9N9      -0.081400
     16 C14         -0.4280    -0.2000     1.1880 c5         1 9N9      -0.069400
     17 C9          -0.0680     1.1960     0.7070 c5         1 9N9      -0.035500
     18 C10         -1.1900     1.5460    -0.3040 c5         1 9N9      -0.037000
     19 C17         -1.0580     0.7110    -1.5790 c3         1 9N9      -0.080100
     20 C11         -1.0860     3.0410    -0.6140 c6         1 9N9      -0.063400
     21 C12          0.3060     3.4230    -1.1150 c6         1 9N9      -0.071400
     22 C13          1.4260     2.9620    -0.1740 c6         1 9N9      -0.042200
     23 C7           2.2540     0.5740     0.0340 ce         1 9N9      -0.137000
     24 C            4.3990    -1.5980    -0.3860 c6         1 9N9      -0.032700
     25 C3           6.9960    -0.2180    -0.1170 c6         1 9N9       0.188800
     26 O            6.8320     0.5190     1.0790 oh         1 9N9      -0.591800
     27 C21          7.8000    -2.5630    -0.1440 c2         1 9N9      -0.198000
     28 C1           5.4550    -2.0980     0.6070 c6         1 9N9       0.188800
     29 O1           5.2870    -3.4850     0.7530 oh         1 9N9      -0.591800
     30 H2           3.8780     1.8260    -0.6760 ha         1 9N9       0.120000
     31 H3           6.1450    -0.2070    -2.0680 hc         1 9N9       0.058450
     32 H4          -7.3910    -2.5770    -1.6420 ha         1 9N9       0.141000
     33 H5          -8.8300    -2.0720     1.0150 ha         1 9N9       0.131000
     34 H6          -9.4520    -3.8730    -1.4290 hc         1 9N9       0.048367
     35 H7          -9.7950    -4.3010     0.2570 hc         1 9N9       0.048367
     36 H8         -10.6700    -2.9880    -0.4960 hc         1 9N9       0.048367
     37 H9          -3.6120     0.0720    -0.9300 hc         1 9N9       0.067700
     38 H10         -5.2770     1.9160    -1.3850 hc         1 9N9       0.043033
     39 H11         -4.3240     2.9930    -0.3610 hc         1 9N9       0.043033
     40 H12         -3.6430     2.3340    -1.8510 hc         1 9N9       0.043033
     41 H13         -2.5890     1.9160     1.2650 hc         1 9N9       0.064700
     42 H14         -2.3100    -0.1500     2.3000 hc         1 9N9       0.046700
     43 H15         -2.4000    -1.0520     0.8040 hc         1 9N9       0.046700
     44 H16          0.0350    -0.4430     2.1450 hc         1 9N9       0.045700
     45 H17         -0.0990    -0.9600     0.4760 hc         1 9N9       0.045700
     46 H18         -0.2220     1.8780     1.5580 hc         1 9N9       0.055700
     47 H19         -1.2650    -0.3470    -1.4070 hc         1 9N9       0.034700
     48 H20         -1.7480     1.0530    -2.3520 hc         1 9N9       0.034700
     49 H21         -0.0520     0.7740    -1.9960 hc         1 9N9       0.034700
     50 H22         -1.8290     3.3480    -1.3530 hc         1 9N9       0.040700
     51 H23         -1.3090     3.6010     0.3010 hc         1 9N9       0.040700
     52 H24          0.4760     3.0010    -2.1100 hc         1 9N9       0.039700
     53 H25          0.3660     4.5070    -1.2340 hc         1 9N9       0.039700
     54 H26          1.3600     3.5440     0.7530 hc         1 9N9       0.047200
     55 H27          2.3940     3.2010    -0.6150 hc         1 9N9       0.047200
     56 H28          2.0020    -0.4410     0.3210 ha         1 9N9       0.123000
     57 H29          3.4070    -1.8530    -0.0150 hc         1 9N9       0.058450
     58 H30          4.5370    -2.1390    -1.3310 hc         1 9N9       0.058450
     59 H31          7.9870    -0.0380    -0.5530 h1         1 9N9       0.042200
     60 H32          7.5000     0.2210     1.7050 ho         1 9N9       0.402500
     61 H33          8.7610    -2.2230    -0.5090 ha         1 9N9       0.117500
     62 H34          7.6840    -3.6320    -0.0180 ha         1 9N9       0.117500
     63 H35          5.2710    -1.5880     1.5630 h1         1 9N9       0.042200
     64 H36          5.8200    -3.7800     1.4980 ho         1 9N9       0.402500
     65 H1           6.0110     1.3410    -1.2430 hc         1 9N9       0.058450
     66 O2          -4.9410     0.9560     1.8660 o          1 9N9      -0.507100
@<TRIPOS>BOND
     1     1    17 1   
     2     1    22 1   
     3     1    23 2   
     4     2     3 2   
     5     2     5 1   
     6     2    24 1   
     7     3    23 1   
     8     3    30 1   
     9     4    25 1   
    10     4    27 2   
    11     4    28 1   
    12     5    25 1   
    13     5    31 1   
    14     5    65 1   
    15     6     7 1   
    16     6    12 1   
    17     6    66 2   
    18     7     8 3   
    19     8     9 1   
    20     9    10 2   
    21     9    32 1   
    22    10    11 1   
    23    10    33 1   
    24    11    34 1   
    25    11    35 1   
    26    11    36 1   
    27    12    13 1   
    28    12    14 1   
    29    12    37 1   
    30    13    38 1   
    31    13    39 1   
    32    13    40 1   
    33    14    15 1   
    34    14    18 1   
    35    14    41 1   
    36    15    16 1   
    37    15    42 1   
    38    15    43 1   
    39    16    17 1   
    40    16    44 1   
    41    16    45 1   
    42    17    18 1   
    43    17    46 1   
    44    18    19 1   
    45    18    20 1   
    46    19    47 1   
    47    19    48 1   
    48    19    49 1   
    49    20    21 1   
    50    20    50 1   
    51    20    51 1   
    52    21    22 1   
    53    21    52 1   
    54    21    53 1   
    55    22    54 1   
    56    22    55 1   
    57    23    56 1   
    58    24    28 1   
    59    24    57 1   
    60    24    58 1   
    61    25    26 1   
    62    25    59 1   
    63    26    60 1   
    64    27    61 1   
    65    27    62 1   
    66    28    29 1   
    67    28    63 1   
    68    29    64 1   
@<TRIPOS>SUBSTRUCTURE
     1 9N9         1 TEMP              0 ****  ****    0 ROOT
