@<TRIPOS>MOLECULE
9N9
   66    68     1     0     0
SMALL
No Charge or Current Charge


@<TRIPOS>ATOM
      1 C8           1.1840     1.6430    -0.0060 c2         1 9N9      -0.081400
      2 C5           4.3980    -0.2440    -0.6420 c2         1 9N9      -0.105400
      3 C6           3.5070     0.7690    -0.4880 ce         1 9N9      -0.162000
      4 C2           6.6350    -2.0270     0.1140 c2         1 9N9      -0.199400
      5 C4           5.8060     0.0120    -1.1800 c6         1 9N9      -0.032700
      6 C20         -4.9750     0.9020     1.2500 c          1 9N9       0.605300
      7 C22         -5.6960    -0.3400     1.0060 cg         1 9N9      -0.200200
      8 C23         -6.2720    -1.3810     0.7310 ch         1 9N9      -0.082300
      9 C24         -6.9560    -2.5700     0.3400 cf         1 9N9      -0.109700
     10 C25         -7.7310    -2.6780    -0.7630 c2         1 9N9      -0.161200
     11 C26         -8.4640    -3.9290    -1.1950 c3         1 9N9      -0.068900
     12 C18         -3.9950     1.3670     0.1450 c3         1 9N9      -0.136700
     13 C19         -4.5160     2.6840    -0.4830 c3         1 9N9      -0.085100
     14 C16         -2.5270     1.4060     0.6950 c5         1 9N9      -0.050700
     15 C15         -2.0800     0.0260     1.3150 c5         1 9N9      -0.081400
     16 C14         -0.5320    -0.0530     1.1210 c5         1 9N9      -0.069400
     17 C9          -0.1730     1.3980     0.6930 c5         1 9N9      -0.035500
     18 C10         -1.3420     1.7420    -0.2920 c5         1 9N9      -0.037000
     19 C17         -1.3860     0.8720    -1.5980 c3         1 9N9      -0.080100
     20 C11         -1.2050     3.2460    -0.6980 c6         1 9N9      -0.063400
     21 C12          0.1470     3.5370    -1.4070 c6         1 9N9      -0.071400
     22 C13          1.3750     3.0470    -0.5950 c6         1 9N9      -0.042200
     23 C7           2.1300     0.6630     0.0410 ce         1 9N9      -0.187000
     24 C            4.1490    -1.7230    -0.3380 c6         1 9N9      -0.032700
     25 C3           6.9130    -0.5730    -0.2620 c6         1 9N9       0.212000
     26 O            7.0410     0.1950     0.9350 oh         1 9N9      -0.654000
     27 C21          7.5850    -2.9770    -0.0220 c2         1 9N9      -0.298000
     28 C1           5.2120    -2.2740     0.6430 c6         1 9N9       0.212000
     29 O1           4.9770    -3.6660     0.8800 oh         1 9N9      -0.654000
     30 H2           3.8370     1.7710    -0.7580 ha         1 9N9       0.170000
     31 H3           5.8910    -0.4490    -2.1730 hc         1 9N9       0.058450
     32 H4          -6.8300    -3.4370     0.9920 ha         1 9N9       0.191000
     33 H5          -7.8630    -1.8150    -1.4200 ha         1 9N9       0.181000
     34 H6          -7.7650    -4.7560    -1.3680 hc         1 9N9       0.048367
     35 H7          -9.1820    -4.2500    -0.4300 hc         1 9N9       0.048367
     36 H8          -9.0200    -3.7610    -2.1250 hc         1 9N9       0.048367
     37 H9          -4.0350     0.6130    -0.6500 hc         1 9N9       0.067700
     38 H10         -5.6020     2.6360    -0.6290 hc         1 9N9       0.043033
     39 H11         -4.2960     3.5440     0.1610 hc         1 9N9       0.043033
     40 H12         -4.0720     2.8520    -1.4690 hc         1 9N9       0.043033
     41 H13         -2.5440     2.1580     1.4950 hc         1 9N9       0.064700
     42 H14         -2.3540    -0.0340     2.3750 hc         1 9N9       0.046700
     43 H15         -2.5660    -0.8240     0.8220 hc         1 9N9       0.046700
     44 H16         -0.0180    -0.3520     2.0420 hc         1 9N9       0.045700
     45 H17         -0.2780    -0.7950     0.3550 hc         1 9N9       0.045700
     46 H18         -0.2070     2.0500     1.5760 hc         1 9N9       0.055700
     47 H19         -1.6680    -0.1690    -1.4070 hc         1 9N9       0.034700
     48 H20         -2.1230     1.2670    -2.3080 hc         1 9N9       0.034700
     49 H21         -0.4190     0.8470    -2.1120 hc         1 9N9       0.034700
     50 H22         -2.0160     3.5550    -1.3650 hc         1 9N9       0.040700
     51 H23         -1.2860     3.8790     0.1960 hc         1 9N9       0.040700
     52 H24          0.1560     3.0660    -2.3990 hc         1 9N9       0.039700
     53 H25          0.2390     4.6150    -1.5930 hc         1 9N9       0.039700
     54 H26          1.5580     3.7470     0.2320 hc         1 9N9       0.047200
     55 H27          2.2550     3.1050    -1.2450 hc         1 9N9       0.047200
     56 H28          1.9050    -0.2770     0.5320 ha         1 9N9       0.173000
     57 H29          3.1500    -1.9090     0.0690 hc         1 9N9       0.058450
     58 H30          4.1960    -2.2910    -1.2780 hc         1 9N9       0.058450
     59 H31          7.8600    -0.5240    -0.8200 h1         1 9N9       0.042200
     60 H32          7.6850    -0.2890     1.4940 ho         1 9N9       0.441500
     61 H33          8.5790    -2.7380    -0.4040 ha         1 9N9       0.167500
     62 H34          7.4190    -4.0250     0.2280 ha         1 9N9       0.167500
     63 H35          5.1020    -1.7260     1.5910 h1         1 9N9       0.042200
     64 H36          5.6630    -3.9460     1.5220 ho         1 9N9       0.441500
     65 H1           5.9820     1.0850    -1.3310 hc         1 9N9       0.058450
     66 O2          -5.1560     1.5320     2.2850 o          1 9N9      -0.507100
@<TRIPOS>BOND
     1     1    17 1   
     2     1    22 1   
     3     1    23 2   
     4     2     3 2   
     5     2     5 1   
     6     2    24 1   
     7     3    23 1   
     8     3    30 1   
     9     4    25 1   
    10     4    27 2   
    11     4    28 1   
    12     5    25 1   
    13     5    31 1   
    14     5    65 1   
    15     6     7 1   
    16     6    12 1   
    17     6    66 2   
    18     7     8 3   
    19     8     9 1   
    20     9    10 2   
    21     9    32 1   
    22    10    11 1   
    23    10    33 1   
    24    11    34 1   
    25    11    35 1   
    26    11    36 1   
    27    12    13 1   
    28    12    14 1   
    29    12    37 1   
    30    13    38 1   
    31    13    39 1   
    32    13    40 1   
    33    14    15 1   
    34    14    18 1   
    35    14    41 1   
    36    15    16 1   
    37    15    42 1   
    38    15    43 1   
    39    16    17 1   
    40    16    44 1   
    41    16    45 1   
    42    17    18 1   
    43    17    46 1   
    44    18    19 1   
    45    18    20 1   
    46    19    47 1   
    47    19    48 1   
    48    19    49 1   
    49    20    21 1   
    50    20    50 1   
    51    20    51 1   
    52    21    22 1   
    53    21    52 1   
    54    21    53 1   
    55    22    54 1   
    56    22    55 1   
    57    23    56 1   
    58    24    28 1   
    59    24    57 1   
    60    24    58 1   
    61    25    26 1   
    62    25    59 1   
    63    26    60 1   
    64    27    61 1   
    65    27    62 1   
    66    28    29 1   
    67    28    63 1   
    68    29    64 1   
@<TRIPOS>SUBSTRUCTURE
     1 9N9         1 TEMP              0 ****  ****    0 ROOT
