@<TRIPOS>MOLECULE
9NA
   72    76     1     0     0
SMALL
No Charge or Current Charge


@<TRIPOS>ATOM
      1 N3          13.3130    26.3520     2.4980 nc         1 9NA      -0.556100
      2 C4          11.8670    25.0430     3.6840 ca         1 9NA      -0.066200
      3 C5          15.3890    25.1490     2.8940 ca         1 9NA      -0.243900
      4 C6          12.0070    26.1620     2.9050 ca         1 9NA       0.073400
      5 C7          12.5570    22.1350     4.6250 c          1 9NA       0.592100
      6 C8          15.9460    23.9720     2.3740 ca         1 9NA       0.642300
      7 C10         13.4890    23.3680     4.7470 c3         1 9NA       0.016300
      8 C15          9.6440    26.6200     3.1160 ca         1 9NA       0.109000
      9 C17         18.0880    24.8220     2.5340 ca         1 9NA       0.638300
     10 C20         17.6140    26.0440     3.0190 ca         1 9NA      -0.225000
     11 C22         11.7010    20.4380     2.9600 c6         1 9NA       0.109700
     12 C26          9.9940    19.0810     0.8860 c6         1 9NA       0.166300
     13 C28         12.3220    19.6920     1.7520 c6         1 9NA      -0.087900
     14 C1          13.9440    25.2920     3.0360 cd         1 9NA       0.499400
     15 N2          13.1070    24.4590     3.8070 na         1 9NA      -0.180600
     16 C12         10.9060    26.9760     2.6040 ca         1 9NA      -0.066000
     17 C14          9.5020    25.4650     3.9200 ca         1 9NA       0.142000
     18 C11         10.6190    24.6610     4.2150 ca         1 9NA      -0.129000
     19 F23          8.2900    25.1240     4.4170 f          1 9NA      -0.164000
     20 F24          8.5690    27.3920     2.8360 f          1 9NA      -0.166000
     21 N13         12.5710    21.5400     3.3820 ns         1 9NA      -0.499900
     22 C27         10.3000    20.9810     2.5730 c6         1 9NA      -0.087900
     23 C29          9.3670    19.8450     2.0800 c6         1 9NA      -0.088900
     24 C30         11.4000    18.5480     1.2590 c6         1 9NA      -0.088900
     25 O31          9.1500    17.9930     0.5020 oh         1 9NA      -0.665000
     26 C19         13.8630    23.8680     6.1890 c6         1 9NA      -0.053700
     27 C32         12.6810    24.5060     6.9800 c6         1 9NA      -0.073900
     28 C36         13.1430    25.0350     8.3610 c6         1 9NA      -0.071400
     29 C38         13.8320    23.9240     9.1900 c6         1 9NA      -0.076400
     30 C37         15.0190    23.3060     8.4130 c6         1 9NA      -0.071400
     31 C33         14.5620    22.7630     7.0370 c6         1 9NA      -0.073900
     32 N9          17.2710    23.8050     2.2090 nb         1 9NA      -0.836000
     33 C16         16.2390    26.2250     3.1960 ca         1 9NA       0.023000
     34 O25         19.4460    24.6820     2.3780 os         1 9NA      -0.459300
     35 C35         20.0160    23.4540     1.8850 c3         1 9NA       0.160900
     36 O21         15.1020    22.9530     1.9920 os         1 9NA      -0.481300
     37 C34         15.6170    21.7540     1.3780 c3         1 9NA       0.159900
     38 H1          14.4380    22.9780     4.3690 h1         1 9NA       0.077700
     39 H2          18.3150    26.8390     3.2540 ha         1 9NA       0.148000
     40 H3          11.5970    19.7310     3.7980 h1         1 9NA       0.080700
     41 H4          10.1030    19.7810     0.0440 h1         1 9NA       0.030700
     42 H6          12.5010    20.3970     0.9280 hc         1 9NA       0.048450
     43 H7          11.0240    27.8630     1.9870 ha         1 9NA       0.151000
     44 H8          10.4970    23.7860     4.8420 ha         1 9NA       0.157000
     45 H9          13.1780    21.9670     2.6890 hn         1 9NA       0.326500
     46 H10         10.3980    21.7450     1.7900 hc         1 9NA       0.048450
     47 H11          9.8400    21.4800     3.4370 hc         1 9NA       0.048450
     48 H12          8.3970    20.2680     1.7870 hc         1 9NA       0.055200
     49 H13          9.1680    19.1490     2.9070 hc         1 9NA       0.055200
     50 H14         11.3140    17.7810     2.0420 hc         1 9NA       0.055200
     51 H15         11.8550    18.0560     0.3880 hc         1 9NA       0.055200
     52 H16          8.3030    18.3870     0.1990 ho         1 9NA       0.443000
     53 H17         14.6070    24.6610     6.0260 hc         1 9NA       0.047700
     54 H18         12.2510    25.3420     6.4130 hc         1 9NA       0.051700
     55 H19         11.8740    23.7760     7.1240 hc         1 9NA       0.051700
     56 H20         13.8360    25.8760     8.2220 hc         1 9NA       0.038950
     57 H21         12.2810    25.4310     8.9150 hc         1 9NA       0.038950
     58 H22         14.1860    24.3370    10.1450 hc         1 9NA       0.042700
     59 H23         13.1030    23.1410     9.4390 hc         1 9NA       0.042700
     60 H24         15.4690    22.4960     9.0030 hc         1 9NA       0.038950
     61 H25         15.8040    24.0630     8.2710 hc         1 9NA       0.038950
     62 H26         13.8860    21.9130     7.1960 hc         1 9NA       0.051700
     63 H27         15.4330    22.3680     6.4950 hc         1 9NA       0.051700
     64 H28         15.8450    27.1680     3.5710 ha         1 9NA       0.139000
     65 H29         21.1090    23.5340     1.8320 h1         1 9NA       0.050700
     66 H30         19.7700    22.6130     2.5460 h1         1 9NA       0.050700
     67 H31         19.6440    23.2250     0.8780 h1         1 9NA       0.050700
     68 H32         14.7990    21.0740     1.1140 h1         1 9NA       0.052033
     69 H33         16.1670    21.9900     0.4570 h1         1 9NA       0.052033
     70 H34         16.2930    21.2230     2.0610 h1         1 9NA       0.052033
     71 O18         11.8620    21.6990     5.5320 o          1 9NA      -0.594100
     72 H5          13.3010    19.2800     2.0330 hc         1 9NA       0.048450
@<TRIPOS>BOND
     1     1     4 1   
     2     1    14 2   
     3     2     4 ar  
     4     2    15 1   
     5     2    18 ar  
     6     3     6 ar  
     7     3    14 1   
     8     3    33 ar  
     9     4    16 ar  
    10     5     7 1   
    11     5    21 1   
    12     5    71 2   
    13     6    32 ar  
    14     6    36 1   
    15     7    15 1   
    16     7    26 1   
    17     7    38 1   
    18     8    16 ar  
    19     8    17 ar  
    20     8    20 1   
    21     9    10 ar  
    22     9    32 ar  
    23     9    34 1   
    24    10    33 ar  
    25    10    39 1   
    26    11    13 1   
    27    11    21 1   
    28    11    22 1   
    29    11    40 1   
    30    12    23 1   
    31    12    24 1   
    32    12    25 1   
    33    12    41 1   
    34    13    24 1   
    35    13    42 1   
    36    13    72 1   
    37    14    15 1   
    38    16    43 1   
    39    17    18 ar  
    40    17    19 1   
    41    18    44 1   
    42    21    45 1   
    43    22    23 1   
    44    22    46 1   
    45    22    47 1   
    46    23    48 1   
    47    23    49 1   
    48    24    50 1   
    49    24    51 1   
    50    25    52 1   
    51    26    27 1   
    52    26    31 1   
    53    26    53 1   
    54    27    28 1   
    55    27    54 1   
    56    27    55 1   
    57    28    29 1   
    58    28    56 1   
    59    28    57 1   
    60    29    30 1   
    61    29    58 1   
    62    29    59 1   
    63    30    31 1   
    64    30    60 1   
    65    30    61 1   
    66    31    62 1   
    67    31    63 1   
    68    33    64 1   
    69    34    35 1   
    70    35    65 1   
    71    35    66 1   
    72    35    67 1   
    73    36    37 1   
    74    37    68 1   
    75    37    69 1   
    76    37    70 1   
@<TRIPOS>SUBSTRUCTURE
     1 9NA         1 TEMP              0 ****  ****    0 ROOT
