@<TRIPOS>MOLECULE
9NA
   72    76     1     0     0
SMALL
abcg2


@<TRIPOS>ATOM
      1 N3          13.1680    26.1110     2.3740 nc         1 9NA      -0.556100
      2 C4          11.8060    24.8440     3.7030 ca         1 9NA      -0.066200
      3 C5          15.3400    25.0730     2.9220 ca         1 9NA      -0.243900
      4 C6          11.8590    25.9000     2.7690 ca         1 9NA       0.073400
      5 C7          12.7020    22.1350     4.6280 c          1 9NA       0.592100
      6 C8          15.9390    23.9390     2.3570 ca         1 9NA       0.642300
      7 C10         13.6220    23.3720     4.7400 c3         1 9NA       0.016300
      8 C15          9.5060    26.0990     2.9040 ca         1 9NA       0.109000
      9 C17         18.0470    24.7340     2.7200 ca         1 9NA       0.638300
     10 C20         17.5710    25.9270     3.2700 ca         1 9NA      -0.225000
     11 C22         11.6770    20.6190     2.9610 c6         1 9NA       0.109700
     12 C26          9.9380    19.3790     0.9220 c6         1 9NA       0.166300
     13 C28         12.2590    19.8640     1.7670 c6         1 9NA      -0.087900
     14 C1          13.8840    25.2190     3.0250 cd         1 9NA       0.499400
     15 N2          13.1150    24.4220     3.8520 na         1 9NA      -0.180600
     16 C12         10.6890    26.5450     2.3590 ca         1 9NA      -0.066000
     17 C14          9.4680    25.0560     3.8370 ca         1 9NA       0.142000
     18 C11         10.6070    24.4080     4.2630 ca         1 9NA      -0.129000
     19 F23          8.2640    24.6800     4.3230 f          1 9NA      -0.164000
     20 F24          8.3320    26.6660     2.5420 f          1 9NA      -0.166000
     21 N13         12.6010    21.6690     3.3730 ns         1 9NA      -0.499900
     22 C27         10.2970    21.1970     2.6270 c6         1 9NA      -0.087900
     23 C29          9.3480    20.1110     2.1230 c6         1 9NA      -0.088900
     24 C30         11.2970    18.7880     1.2620 c6         1 9NA      -0.088900
     25 O31          9.0930    18.3040     0.4880 oh         1 9NA      -0.665000
     26 C19         13.9400    23.8970     6.1470 c6         1 9NA      -0.053700
     27 C32         12.7530    24.4480     6.9440 c6         1 9NA      -0.073900
     28 C36         13.2200    25.0190     8.2850 c6         1 9NA      -0.071400
     29 C38         14.0020    23.9860     9.0990 c6         1 9NA      -0.076400
     30 C37         15.1830    23.4360     8.2990 c6         1 9NA      -0.071400
     31 C33         14.7270    22.8590     6.9570 c6         1 9NA      -0.073900
     32 N9          17.2500    23.7730     2.2680 nb         1 9NA      -0.836000
     33 C16         16.2010    26.0790     3.3640 ca         1 9NA       0.023000
     34 O25         19.3780    24.5680     2.6530 os         1 9NA      -0.459300
     35 C35         19.8800    23.3340     2.1150 c3         1 9NA       0.160900
     36 O21         15.1250    22.9760     1.8790 os         1 9NA      -0.481300
     37 C34         15.7310    21.7970     1.3210 c3         1 9NA       0.159900
     38 H1          14.5730    23.0580     4.3130 h1         1 9NA       0.077700
     39 H2          18.2590    26.6850     3.6150 ha         1 9NA       0.148000
     40 H3          11.5780    19.9340     3.8050 h1         1 9NA       0.080700
     41 H4          10.0600    20.0950     0.0980 h1         1 9NA       0.030700
     42 H6          12.4610    20.5820     0.9640 hc         1 9NA       0.048450
     43 H7          10.6960    27.3530     1.6400 ha         1 9NA       0.151000
     44 H8          10.5380    23.6130     4.9890 ha         1 9NA       0.157000
     45 H9          13.0900    22.1700     2.6440 hn         1 9NA       0.326500
     46 H10         10.4210    21.9710     1.8620 hc         1 9NA       0.048450
     47 H11          9.8800    21.6850     3.5080 hc         1 9NA       0.048450
     48 H12          8.3850    20.5510     1.8510 hc         1 9NA       0.055200
     49 H13          9.1610    19.3780     2.9150 hc         1 9NA       0.055200
     50 H14         11.1600    18.0210     2.0310 hc         1 9NA       0.055200
     51 H15         11.7150    18.2950     0.3810 hc         1 9NA       0.055200
     52 H16          8.2320    18.6740     0.2580 ho         1 9NA       0.443000
     53 H17         14.6200    24.7390     5.9670 hc         1 9NA       0.047700
     54 H18         12.2480    25.2280     6.3720 hc         1 9NA       0.051700
     55 H19         12.0280    23.6500     7.1160 hc         1 9NA       0.051700
     56 H20         13.8600    25.8890     8.1010 hc         1 9NA       0.038950
     57 H21         12.3570    25.3770     8.8540 hc         1 9NA       0.038950
     58 H22         14.3520    24.4290    10.0350 hc         1 9NA       0.042700
     59 H23         13.3340    23.1600     9.3690 hc         1 9NA       0.042700
     60 H24         15.7070    22.6680     8.8740 hc         1 9NA       0.038950
     61 H25         15.9020    24.2430     8.1180 hc         1 9NA       0.038950
     62 H26         14.0980    21.9840     7.1310 hc         1 9NA       0.051700
     63 H27         15.5920    22.5240     6.3770 hc         1 9NA       0.051700
     64 H28         15.7810    26.9770     3.7960 ha         1 9NA       0.139000
     65 H29         20.9620    23.4170     2.1710 h1         1 9NA       0.050700
     66 H30         19.5330    22.4880     2.7080 h1         1 9NA       0.050700
     67 H31         19.5620    23.2070     1.0800 h1         1 9NA       0.050700
     68 H32         14.9020    21.1850     0.9800 h1         1 9NA       0.052033
     69 H33         16.3800    22.0590     0.4870 h1         1 9NA       0.052033
     70 H34         16.3050    21.2680     2.0810 h1         1 9NA       0.052033
     71 O18         12.1280    21.6340     5.5900 o          1 9NA      -0.594100
     72 H5          13.2160    19.4170     2.0450 hc         1 9NA       0.048450
@<TRIPOS>BOND
     1     1     4 1   
     2     1    14 2   
     3     2     4 ar  
     4     2    15 1   
     5     2    18 ar  
     6     3     6 ar  
     7     3    14 1   
     8     3    33 ar  
     9     4    16 ar  
    10     5     7 1   
    11     5    21 1   
    12     5    71 2   
    13     6    32 ar  
    14     6    36 1   
    15     7    15 1   
    16     7    26 1   
    17     7    38 1   
    18     8    16 ar  
    19     8    17 ar  
    20     8    20 1   
    21     9    10 ar  
    22     9    32 ar  
    23     9    34 1   
    24    10    33 ar  
    25    10    39 1   
    26    11    13 1   
    27    11    21 1   
    28    11    22 1   
    29    11    40 1   
    30    12    23 1   
    31    12    24 1   
    32    12    25 1   
    33    12    41 1   
    34    13    24 1   
    35    13    42 1   
    36    13    72 1   
    37    14    15 1   
    38    16    43 1   
    39    17    18 ar  
    40    17    19 1   
    41    18    44 1   
    42    21    45 1   
    43    22    23 1   
    44    22    46 1   
    45    22    47 1   
    46    23    48 1   
    47    23    49 1   
    48    24    50 1   
    49    24    51 1   
    50    25    52 1   
    51    26    27 1   
    52    26    31 1   
    53    26    53 1   
    54    27    28 1   
    55    27    54 1   
    56    27    55 1   
    57    28    29 1   
    58    28    56 1   
    59    28    57 1   
    60    29    30 1   
    61    29    58 1   
    62    29    59 1   
    63    30    31 1   
    64    30    60 1   
    65    30    61 1   
    66    31    62 1   
    67    31    63 1   
    68    33    64 1   
    69    34    35 1   
    70    35    65 1   
    71    35    66 1   
    72    35    67 1   
    73    36    37 1   
    74    37    68 1   
    75    37    69 1   
    76    37    70 1   
@<TRIPOS>SUBSTRUCTURE
     1 9NA         1 TEMP              0 ****  ****    0 ROOT
