@<TRIPOS>MOLECULE
9NB
   25    25     1     0     0
SMALL
bcc


@<TRIPOS>ATOM
      1 SAD          5.1500     0.3280    -0.3530 sh         1 9NB      -0.295900
      2 CAI          3.7690    -0.8380    -0.2210 c3         1 9NB      -0.090300
      3 CAL          2.4770    -0.0500    -0.2650 c          1 9NB       0.687100
      4 OAC          2.4610     1.1480    -0.4570 o          1 9NB      -0.539100
      5 NAJ          1.3750    -0.8210    -0.0720 ns         1 9NB      -0.473100
      6 CAM          0.0340    -0.4540    -0.0490 ca         1 9NB       0.101600
      7 CAE         -0.4330     0.8500    -0.2470 ca         1 9NB      -0.186500
      8 CAG         -1.7920     1.1030    -0.1990 ca         1 9NB      -0.051500
      9 CAN         -2.7220     0.0910     0.0390 ca         1 9NB      -0.207600
     10 CAK         -4.1690     0.4170     0.0800 c          1 9NB       0.587700
     11 OAB         -4.5500     1.5630    -0.0570 o          1 9NB      -0.526100
     12 CAA         -5.1440    -0.7090     0.2930 c3         1 9NB      -0.195100
     13 CAH         -2.2440    -1.2060     0.2320 ca         1 9NB      -0.051500
     14 CAF         -0.8910    -1.4750     0.1900 ca         1 9NB      -0.186500
     15 H1           6.1110    -0.5960    -0.2360 hs         1 9NB       0.186800
     16 H2           3.7880    -1.5540    -1.0460 h1         1 9NB       0.077200
     17 H3           3.8280    -1.4060     0.7090 h1         1 9NB       0.077200
     18 H4           1.5460    -1.8040     0.0850 hn         1 9NB       0.316500
     19 H5           0.2470     1.6630    -0.4340 ha         1 9NB       0.149500
     20 H6          -2.1330     2.1180    -0.3540 ha         1 9NB       0.144000
     21 H7          -6.1650    -0.3370     0.2540 hc         1 9NB       0.060033
     22 H8          -5.0180    -1.4840    -0.4640 hc         1 9NB       0.060033
     23 H9          -4.9830    -1.1830     1.2640 hc         1 9NB       0.060033
     24 H10         -2.9230    -2.0260     0.4180 ha         1 9NB       0.144000
     25 H11         -0.5440    -2.4890     0.3470 ha         1 9NB       0.149500
@<TRIPOS>BOND
     1     1     2 1   
     2     1    15 1   
     3     2     3 1   
     4     2    16 1   
     5     2    17 1   
     6     3     4 2   
     7     3     5 1   
     8     5     6 1   
     9     5    18 1   
    10     6     7 ar  
    11     6    14 ar  
    12     7     8 ar  
    13     7    19 1   
    14     8     9 ar  
    15     8    20 1   
    16     9    10 1   
    17     9    13 ar  
    18    10    11 2   
    19    10    12 1   
    20    12    21 1   
    21    12    22 1   
    22    12    23 1   
    23    13    14 ar  
    24    13    24 1   
    25    14    25 1   
@<TRIPOS>SUBSTRUCTURE
     1 9NB         1 TEMP              0 ****  ****    0 ROOT
