@<TRIPOS>MOLECULE
9NB
   25    25     1     0     0
SMALL
No Charge or Current Charge


@<TRIPOS>ATOM
      1 SAD          5.4140     0.1830    -0.4420 sh         1 9NB      -0.343800
      2 CAI          3.8550    -0.8180    -0.1920 c3         1 9NB      -0.042400
      3 CAL          2.5570     0.0150    -0.2560 c          1 9NB       0.620100
      4 OAC          2.5550     1.2250    -0.4530 o          1 9NB      -0.539100
      5 NAJ          1.4100    -0.7470    -0.0670 ns         1 9NB      -0.147000
      6 CAM          0.0280    -0.4140    -0.0440 ca         1 9NB       0.009000
      7 CAE         -0.4690     0.8930    -0.2280 ca         1 9NB      -0.168500
      8 CAG         -1.8510     1.1440    -0.1920 ca         1 9NB      -0.033500
      9 CAN         -2.7730     0.0970     0.0290 ca         1 9NB      -0.207600
     10 CAK         -4.2590     0.3980     0.0630 c          1 9NB       0.587700
     11 OAB         -4.6720     1.5400    -0.0990 o          1 9NB      -0.526100
     12 CAA         -5.2580    -0.7360     0.3030 c3         1 9NB      -0.195100
     13 CAH         -2.2720    -1.2110     0.2130 ca         1 9NB      -0.033500
     14 CAF         -0.8880    -1.4570     0.1760 ca         1 9NB      -0.168500
     15 H1           6.2840    -0.8500    -0.3220 hs         1 9NB       0.186800
     16 H2           3.8000    -1.5940    -0.9660 h1         1 9NB       0.077200
     17 H3           3.8970    -1.3090     0.7880 h1         1 9NB       0.077200
     18 H4           1.5910    -1.7310     0.0830 hn         1 9NB       0.150000
     19 H5           0.1960     1.7330    -0.4010 ha         1 9NB       0.131500
     20 H6          -2.2020     2.1650    -0.3370 ha         1 9NB       0.126000
     21 H7          -6.2970    -0.3890     0.3040 hc         1 9NB       0.060033
     22 H8          -5.0990    -1.5180    -0.4480 hc         1 9NB       0.060033
     23 H9          -5.0050    -1.2450     1.2390 hc         1 9NB       0.060033
     24 H10         -2.9390    -2.0520     0.3860 ha         1 9NB       0.126000
     25 H11         -0.5280    -2.4730     0.3200 ha         1 9NB       0.131500
@<TRIPOS>BOND
     1     1     2 1   
     2     1    15 1   
     3     2     3 1   
     4     2    16 1   
     5     2    17 1   
     6     3     4 2   
     7     3     5 1   
     8     5     6 1   
     9     5    18 1   
    10     6     7 ar  
    11     6    14 ar  
    12     7     8 ar  
    13     7    19 1   
    14     8     9 ar  
    15     8    20 1   
    16     9    10 1   
    17     9    13 ar  
    18    10    11 2   
    19    10    12 1   
    20    12    21 1   
    21    12    22 1   
    22    12    23 1   
    23    13    14 ar  
    24    13    24 1   
    25    14    25 1   
@<TRIPOS>SUBSTRUCTURE
     1 9NB         1 TEMP              0 ****  ****    0 ROOT
