@<TRIPOS>MOLECULE
9ND
   58    62     1     0     0
SMALL
No Charge or Current Charge


@<TRIPOS>ATOM
      1 N1           0.9790     0.4640    -0.2130 na         1 9ND      -0.172600
      2 N3           0.6470     2.7200     0.1880 nc         1 9ND      -0.545100
      3 C4           1.9530     0.9110     0.6540 ca         1 9ND      -0.059200
      4 C5           1.7490     2.2480     0.8680 ca         1 9ND       0.070400
      5 C6           0.0420    -1.5870     0.8700 c          1 9ND       0.593100
      6 C7           0.6040    -0.9620    -0.4310 c3         1 9ND       0.012300
      7 C8           3.0110     0.2180     1.2720 ca         1 9ND      -0.116000
      8 C13          3.6660     2.3220     2.3370 ca         1 9ND       0.115000
      9 C15          1.6590    -1.8620    -1.1750 c6         1 9ND      -0.062700
     10 C17         -1.1450     1.0200    -2.4960 ca         1 9ND      -0.077000
     11 C20         -2.2590    -1.9380     1.9690 ca         1 9ND      -0.026000
     12 C21         -3.4020     1.8780    -2.7980 ca         1 9ND       0.130000
     13 C22         -2.3230     1.1100    -3.2590 ca         1 9ND      -0.110000
     14 C26          2.3460    -1.1350    -2.3710 c6         1 9ND      -0.073400
     15 C28         -3.6160    -1.6040     1.7910 ca         1 9ND      -0.146500
     16 F19          4.4930     3.0160     3.1540 f          1 9ND      -0.162000
     17 C9           2.5940     2.9860     1.7100 ca         1 9ND      -0.071000
     18 C2           0.2020     1.6230    -0.4540 cd         1 9ND       0.460400
     19 C12         -1.0430     1.6790    -1.2510 ca         1 9ND      -0.124900
     20 C16         -2.1240     2.4810    -0.8180 ca         1 9ND      -0.077000
     21 C23         -3.3010     2.5690    -1.5820 ca         1 9ND      -0.110000
     22 C25          1.0200    -3.1970    -1.6630 c6         1 9ND      -0.073400
     23 C29          2.0590    -4.1060    -2.3650 c6         1 9ND      -0.073400
     24 C33          2.7440    -3.3710    -3.5410 c6         1 9ND      -0.077400
     25 C30          3.3870    -2.0460    -3.0680 c6         1 9ND      -0.073400
     26 O14          0.7650    -2.1140     1.7090 o          1 9ND      -0.559100
     27 N10         -1.3420    -1.5000     0.9750 ns         1 9ND      -0.140000
     28 C27         -1.8840    -2.6840     3.1090 ca         1 9ND      -0.146500
     29 C31         -2.8510    -3.0820     4.0480 ca         1 9ND      -0.083000
     30 C34         -4.2000    -2.7410     3.8600 ca         1 9ND      -0.131000
     31 C32         -4.5830    -2.0010     2.7300 ca         1 9ND      -0.083000
     32 C11          3.8720     0.9400     2.1210 ca         1 9ND       0.148000
     33 F18          4.8970     0.3000     2.7290 f          1 9ND      -0.160000
     34 H1          -0.2520    -0.9450    -1.1120 h1         1 9ND       0.073700
     35 H2           3.1760    -0.8430     1.1240 ha         1 9ND       0.153000
     36 H3           2.4390    -2.1200    -0.4490 hc         1 9ND       0.077700
     37 H4          -0.3080     0.4480    -2.8870 ha         1 9ND       0.133000
     38 H5          -2.3950     0.5920    -4.2130 ha         1 9ND       0.137000
     39 H6           1.5930    -0.8220    -3.1060 hc         1 9ND       0.043950
     40 H7           2.8500    -0.2210    -2.0290 hc         1 9ND       0.043950
     41 H8          -3.9260    -1.0300     0.9200 ha         1 9ND       0.127500
     42 H9           2.4250     4.0460     1.8760 ha         1 9ND       0.151000
     43 H10         -2.0600     3.0250     0.1230 ha         1 9ND       0.133000
     44 H11         -4.1330     3.1760    -1.2330 ha         1 9ND       0.137000
     45 H12          0.5820    -3.7430    -0.8160 hc         1 9ND       0.043950
     46 H13          0.1930    -2.9850    -2.3560 hc         1 9ND       0.043950
     47 H14          2.8170    -4.4300    -1.6390 hc         1 9ND       0.045200
     48 H15          1.5680    -5.0180    -2.7310 hc         1 9ND       0.045200
     49 H16          3.5090    -4.0180    -3.9910 hc         1 9ND       0.041200
     50 H17          2.0060    -3.1650    -4.3290 hc         1 9ND       0.041200
     51 H18          3.8270    -1.5190    -3.9260 hc         1 9ND       0.045200
     52 H19          4.2140    -2.2610    -2.3770 hc         1 9ND       0.045200
     53 H20         -1.7860    -1.0280     0.1980 hn         1 9ND       0.152000
     54 H21         -0.8520    -2.9700     3.2850 ha         1 9ND       0.127500
     55 H22         -2.5540    -3.6570     4.9230 ha         1 9ND       0.115500
     56 H23         -4.9470    -3.0490     4.5880 ha         1 9ND       0.117000
     57 H24         -5.6280    -1.7360     2.5820 ha         1 9ND       0.115500
     58 Cl24        -4.8730     1.9920    -3.7550 cl         1 9ND      -0.188000
@<TRIPOS>BOND
     1     1     3 1   
     2     1     6 1   
     3     1    18 1   
     4     2     4 1   
     5     2    18 2   
     6     3     4 ar  
     7     3     7 ar  
     8     4    17 ar  
     9     5     6 1   
    10     5    26 2   
    11     5    27 1   
    12     6     9 1   
    13     6    34 1   
    14     7    32 ar  
    15     7    35 1   
    16     8    16 1   
    17     8    17 ar  
    18     8    32 ar  
    19     9    14 1   
    20     9    22 1   
    21     9    36 1   
    22    10    13 ar  
    23    10    19 ar  
    24    10    37 1   
    25    11    15 ar  
    26    11    27 1   
    27    11    28 ar  
    28    12    13 ar  
    29    12    21 ar  
    30    12    58 1   
    31    13    38 1   
    32    14    25 1   
    33    14    39 1   
    34    14    40 1   
    35    15    31 ar  
    36    15    41 1   
    37    17    42 1   
    38    18    19 1   
    39    19    20 ar  
    40    20    21 ar  
    41    20    43 1   
    42    21    44 1   
    43    22    23 1   
    44    22    45 1   
    45    22    46 1   
    46    23    24 1   
    47    23    47 1   
    48    23    48 1   
    49    24    25 1   
    50    24    49 1   
    51    24    50 1   
    52    25    51 1   
    53    25    52 1   
    54    27    53 1   
    55    28    29 ar  
    56    28    54 1   
    57    29    30 ar  
    58    29    55 1   
    59    30    31 ar  
    60    30    56 1   
    61    31    57 1   
    62    32    33 1   
@<TRIPOS>SUBSTRUCTURE
     1 9ND         1 TEMP              0 ****  ****    0 ROOT
