@<TRIPOS>MOLECULE
9ND
   58    62     1     0     0
SMALL
bcc


@<TRIPOS>ATOM
      1 N1           0.9320     0.3650    -0.1640 na         1 9ND      -0.143300
      2 N3           0.6620     2.5500     0.2190 nc         1 9ND      -0.545100
      3 C4           1.9610     0.7390     0.6730 ca         1 9ND      -0.059200
      4 C5           1.7770     2.1140     0.8830 ca         1 9ND       0.070400
      5 C6          -0.0700    -1.6310     0.7180 c          1 9ND       0.660100
      6 C7           0.5350    -0.9890    -0.5370 c3         1 9ND      -0.017000
      7 C8           3.0090     0.0420     1.2700 ca         1 9ND      -0.134000
      8 C13          3.6960     2.1540     2.2550 ca         1 9ND       0.079900
      9 C15          1.6470    -1.8170    -1.1770 c6         1 9ND      -0.062700
     10 C17         -1.0540     1.1660    -2.5280 ca         1 9ND      -0.095000
     11 C20         -2.2900    -1.7950     1.8400 ca         1 9ND       0.066600
     12 C21         -3.4050     1.5800    -2.6310 ca         1 9ND       0.038400
     13 C22         -2.2300     1.1980    -3.2600 ca         1 9ND      -0.128000
     14 C26          2.2900    -1.0680    -2.3440 c6         1 9ND      -0.073400
     15 C28         -3.6200    -1.4030     1.6750 ca         1 9ND      -0.164500
     16 F19          4.5790     2.7870     3.0380 f          1 9ND      -0.126900
     17 C9           2.6580     2.8420     1.6810 ca         1 9ND      -0.089000
     18 C2           0.1860     1.4990    -0.3810 cd         1 9ND       0.460400
     19 C12         -1.0490     1.5110    -1.1780 ca         1 9ND      -0.124900
     20 C16         -2.2390     1.9030    -0.5700 ca         1 9ND      -0.095000
     21 C23         -3.4220     1.9350    -1.2900 ca         1 9ND      -0.128000
     22 C25          1.0790    -3.1540    -1.6560 c6         1 9ND      -0.073400
     23 C29          2.1490    -4.0030    -2.3360 c6         1 9ND      -0.073400
     24 C33          2.8070    -3.2530    -3.4880 c6         1 9ND      -0.077400
     25 C30          3.3660    -1.9160    -3.0170 c6         1 9ND      -0.073400
     26 O14          0.6260    -2.1530     1.5650 o          1 9ND      -0.559100
     27 N10         -1.4130    -1.4810     0.7930 ns         1 9ND      -0.466100
     28 C27         -1.9140    -2.4580     3.0080 ca         1 9ND      -0.164500
     29 C31         -2.8680    -2.7140     3.9840 ca         1 9ND      -0.101000
     30 C34         -4.1890    -2.3260     3.8210 ca         1 9ND      -0.149000
     31 C32         -4.5600    -1.6670     2.6560 ca         1 9ND      -0.101000
     32 C11          3.8630     0.7800     2.0530 ca         1 9ND       0.112900
     33 F18          4.8940     0.1770     2.6580 f          1 9ND      -0.124900
     34 H1          -0.2430    -0.8790    -1.2940 h1         1 9ND       0.073700
     35 H2           3.1680    -1.0200     1.1630 ha         1 9ND       0.171000
     36 H3           2.4210    -2.0300    -0.4340 hc         1 9ND       0.077700
     37 H4          -0.1340     0.8840    -3.0250 ha         1 9ND       0.151000
     38 H5          -2.2240     0.9350    -4.3080 ha         1 9ND       0.155000
     39 H6           1.5170    -0.8230    -3.0820 hc         1 9ND       0.043950
     40 H7           2.7220    -0.1210    -2.0130 hc         1 9ND       0.043950
     41 H8          -3.9240    -0.8870     0.7700 ha         1 9ND       0.145500
     42 H9           2.5280     3.9030     1.8490 ha         1 9ND       0.169000
     43 H10         -2.2460     2.1780     0.4770 ha         1 9ND       0.151000
     44 H11         -4.3430     2.2340    -0.8110 ha         1 9ND       0.155000
     45 H12          0.6440    -3.7120    -0.8230 hc         1 9ND       0.043950
     46 H13          0.2660    -2.9610    -2.3660 hc         1 9ND       0.043950
     47 H14          2.9110    -4.2840    -1.6010 hc         1 9ND       0.045200
     48 H15          1.7040    -4.9350    -2.6920 hc         1 9ND       0.045200
     49 H16          3.5990    -3.8600    -3.9330 hc         1 9ND       0.041200
     50 H17          2.0660    -3.0780    -4.2750 hc         1 9ND       0.041200
     51 H18          3.7960    -1.3640    -3.8550 hc         1 9ND       0.045200
     52 H19          4.1800    -2.0900    -2.3060 hc         1 9ND       0.045200
     53 H20         -1.8580    -1.0530    -0.0050 hn         1 9ND       0.318500
     54 H21         -0.8970    -2.7770     3.1650 ha         1 9ND       0.145500
     55 H22         -2.5640    -3.2300     4.8860 ha         1 9ND       0.133500
     56 H23         -4.9220    -2.5340     4.5890 ha         1 9ND       0.135000
     57 H24         -5.5840    -1.3530     2.5060 ha         1 9ND       0.133500
     58 CL24        -4.8780     1.6150    -3.5350 cl         1 9ND      -0.096400
@<TRIPOS>BOND
     1     1     3 1   
     2     1     6 1   
     3     1    18 1   
     4     2     4 1   
     5     2    18 2   
     6     3     4 ar  
     7     3     7 ar  
     8     4    17 ar  
     9     5     6 1   
    10     5    26 2   
    11     5    27 1   
    12     6     9 1   
    13     6    34 1   
    14     7    32 ar  
    15     7    35 1   
    16     8    16 1   
    17     8    17 ar  
    18     8    32 ar  
    19     9    14 1   
    20     9    22 1   
    21     9    36 1   
    22    10    13 ar  
    23    10    19 ar  
    24    10    37 1   
    25    11    15 ar  
    26    11    27 1   
    27    11    28 ar  
    28    12    13 ar  
    29    12    21 ar  
    30    12    58 1   
    31    13    38 1   
    32    14    25 1   
    33    14    39 1   
    34    14    40 1   
    35    15    31 ar  
    36    15    41 1   
    37    17    42 1   
    38    18    19 1   
    39    19    20 ar  
    40    20    21 ar  
    41    20    43 1   
    42    21    44 1   
    43    22    23 1   
    44    22    45 1   
    45    22    46 1   
    46    23    24 1   
    47    23    47 1   
    48    23    48 1   
    49    24    25 1   
    50    24    49 1   
    51    24    50 1   
    52    25    51 1   
    53    25    52 1   
    54    27    53 1   
    55    28    29 ar  
    56    28    54 1   
    57    29    30 ar  
    58    29    55 1   
    59    30    31 ar  
    60    30    56 1   
    61    31    57 1   
    62    32    33 1   
@<TRIPOS>SUBSTRUCTURE
     1 9ND         1 TEMP              0 ****  ****    0 ROOT
