@<TRIPOS>MOLECULE
9NE
   44    45     1     0     0
SMALL
abcg2


@<TRIPOS>ATOM
      1 N           27.8310     7.5940    31.5730 n7         1 9NE      -0.896300
      2 CA          27.2430     6.2710    31.7910 c3         1 9NE       0.110500
      3 C           26.9990     5.5650    30.4240 c          1 9NE       0.726000
      4 O           25.9380     4.9280    30.2990 o          1 9NE      -0.747000
      5 CB          26.0140     6.3590    32.6890 c3         1 9NE      -0.052400
      6 CG          26.2870     6.9260    34.0740 c3         1 9NE      -0.218400
      7 CD          27.2480     6.1030    34.9560 c          1 9NE       0.710000
      8 OE1         27.8400     6.7260    35.8630 o          1 9NE      -0.747000
      9 OE2         27.3290     4.8780    34.7260 o          1 9NE      -0.747000
     10 OXT         27.9140     5.6580    29.5830 o          1 9NE      -0.747000
     11 S1          29.2500     8.1010    32.1880 sy         1 9NE       1.162600
     12 O2          29.0740     9.0670    33.2680 o          1 9NE      -0.547000
     13 O3          30.0370     6.9130    32.4950 o          1 9NE      -0.547000
     14 C1          30.0090     8.9010    30.7680 ca         1 9NE      -0.256500
     15 C2          30.1730     8.0420    29.7090 ca         1 9NE       0.016000
     16 C3          30.7800     8.4780    28.5260 ca         1 9NE      -0.127000
     17 C4          31.2440     9.7610    28.4330 ca         1 9NE      -0.085000
     18 C5          31.1170    10.6650    29.5070 ca         1 9NE      -0.066000
     19 C6          30.4460    10.2580    30.7020 ca         1 9NE       0.056000
     20 C7          30.2180    11.2360    31.7040 ca         1 9NE      -0.103000
     21 C8          30.6310    12.5250    31.5170 ca         1 9NE      -0.116000
     22 C9          31.3380    12.9160    30.3680 ca         1 9NE      -0.176000
     23 C10         31.6110    12.0060    29.3770 ca         1 9NE       0.251000
     24 N1          32.3290    12.3420    28.2160 nh         1 9NE      -0.772400
     25 C11         32.2970    13.7330    27.8220 c3         1 9NE       0.177100
     26 C12         33.6820    11.8070    28.1640 c3         1 9NE       0.177100
     27 H           27.1870     8.3450    31.3550 hn         1 9NE       0.462000
     28 H111        32.9020    14.3900    28.4610 h1         1 9NE       0.025367
     29 H112        32.6870    13.8200    26.8070 h1         1 9NE       0.025367
     30 H113        31.2730    14.1050    27.8210 h1         1 9NE       0.025367
     31 H121        34.0680    11.8880    27.1470 h1         1 9NE       0.025367
     32 H122        34.3650    12.3480    28.8320 h1         1 9NE       0.025367
     33 H123        33.7050    10.7560    28.4450 h1         1 9NE       0.025367
     34 H2          29.7710     7.0370    29.7570 ha         1 9NE       0.200000
     35 H3          30.8650     7.8010    27.6880 ha         1 9NE       0.112000
     36 H4          31.6870    10.1040    27.5080 ha         1 9NE       0.105000
     37 H7          29.6970    10.9760    32.6080 ha         1 9NE       0.168000
     38 H8          30.4300    13.2620    32.2840 ha         1 9NE       0.099000
     39 H9          31.6790    13.9390    30.2860 ha         1 9NE       0.091000
     40 HA          27.9910     5.6680    32.3090 h1         1 9NE       0.099700
     41 HB1C        25.2460     6.9620    32.1910 hc         1 9NE       0.031200
     42 HB2C        25.5970     5.3580    32.7840 hc         1 9NE       0.031200
     43 HG1C        26.6440     7.9570    34.0100 hc         1 9NE       0.006200
     44 HG2C        25.3330     6.9900    34.6110 hc         1 9NE       0.006200
@<TRIPOS>BOND
     1     1     2 1   
     2     1    11 1   
     3     1    27 1   
     4     2     3 1   
     5     2     5 1   
     6     2    40 1   
     7     3     4 1   
     8     3    10 1   
     9     5     6 1   
    10     5    41 1   
    11     5    42 1   
    12     6     7 1   
    13     6    43 1   
    14     6    44 1   
    15     7     8 1   
    16     7     9 1   
    17    11    12 2   
    18    11    13 2   
    19    11    14 1   
    20    14    15 ar  
    21    14    19 ar  
    22    15    16 ar  
    23    15    34 1   
    24    16    17 ar  
    25    16    35 1   
    26    17    18 ar  
    27    17    36 1   
    28    18    19 ar  
    29    18    23 ar  
    30    19    20 ar  
    31    20    21 ar  
    32    20    37 1   
    33    21    22 ar  
    34    21    38 1   
    35    22    23 ar  
    36    22    39 1   
    37    23    24 1   
    38    24    25 1   
    39    24    26 1   
    40    25    28 1   
    41    25    29 1   
    42    25    30 1   
    43    26    31 1   
    44    26    32 1   
    45    26    33 1   
@<TRIPOS>SUBSTRUCTURE
     1 9NE         1 TEMP              0 ****  ****    0 ROOT
