@<TRIPOS>MOLECULE
9NE
   44    45     1     0     0
SMALL
No Charge or Current Charge


@<TRIPOS>ATOM
      1 N           28.6360     7.7840    32.6490 n7         1 9NE      -0.896300
      2 CA          27.6250     7.0240    31.8330 c3         1 9NE       0.110500
      3 C           27.7850     7.1030    30.2570 c          1 9NE       0.726000
      4 O           27.4420     8.1210    29.6650 o          1 9NE      -0.747000
      5 CB          26.1900     7.4370    32.2820 c3         1 9NE      -0.052400
      6 CG          25.9270     7.5020    33.8170 c3         1 9NE      -0.218400
      7 CD          26.5250     6.2960    34.5610 c          1 9NE       0.710000
      8 OE1         27.6640     6.4030    34.9880 o          1 9NE      -0.747000
      9 OE2         25.8570     5.2770    34.6450 o          1 9NE      -0.747000
     10 OXT         28.1760     6.1030    29.6660 o          1 9NE      -0.747000
     11 S1          30.2520     7.3800    32.5110 sy         1 9NE       1.162600
     12 O2          30.8850     8.0290    33.6620 o          1 9NE      -0.547000
     13 O3          30.3080     5.9260    32.3360 o          1 9NE      -0.547000
     14 C1          30.7590     8.2390    30.9980 ca         1 9NE      -0.256500
     15 C2          31.2100     7.4290    29.9330 ca         1 9NE       0.016000
     16 C3          31.6530     8.0060    28.7380 ca         1 9NE      -0.127000
     17 C4          31.6600     9.3960    28.5870 ca         1 9NE      -0.085000
     18 C5          31.2180    10.2390    29.6320 ca         1 9NE      -0.066000
     19 C6          30.7470     9.6590    30.8470 ca         1 9NE       0.056000
     20 C7          30.2710    10.5230    31.8650 ca         1 9NE      -0.103000
     21 C8          30.2710    11.9140    31.6930 ca         1 9NE      -0.116000
     22 C9          30.7490    12.4730    30.5050 ca         1 9NE      -0.176000
     23 C10         31.2270    11.6540    29.4690 ca         1 9NE       0.251000
     24 N1          31.7170    12.2830    28.2970 nh         1 9NE      -0.772400
     25 C11         30.8780    13.2450    27.5550 c3         1 9NE       0.177100
     26 C12         33.1670    12.3060    28.0170 c3         1 9NE       0.177100
     27 H           28.4730     7.4950    33.6210 hn         1 9NE       0.462000
     28 H111        31.0630    14.2690    27.9050 h1         1 9NE       0.025367
     29 H112        31.0970    13.1940    26.4800 h1         1 9NE       0.025367
     30 H113        29.8130    13.0120    27.6940 h1         1 9NE       0.025367
     31 H121        33.3620    11.9920    26.9830 h1         1 9NE       0.025367
     32 H122        33.5710    13.3160    28.1650 h1         1 9NE       0.025367
     33 H123        33.7010    11.6190    28.6880 h1         1 9NE       0.025367
     34 H2          31.2200     6.3430    30.0210 ha         1 9NE       0.200000
     35 H3          31.9930     7.3700    27.9230 ha         1 9NE       0.112000
     36 H4          32.0030     9.8090    27.6420 ha         1 9NE       0.105000
     37 H7          29.8790    10.1420    32.8010 ha         1 9NE       0.168000
     38 H8          29.9010    12.5580    32.4870 ha         1 9NE       0.099000
     39 H9          30.7560    13.5540    30.3910 ha         1 9NE       0.091000
     40 HA          27.7190     5.9530    32.0620 h1         1 9NE       0.099700
     41 HB1C        25.9440     8.4170    31.8570 hc         1 9NE       0.031200
     42 HB2C        25.4840     6.7250    31.8360 hc         1 9NE       0.031200
     43 HG1C        26.3950     8.4320    34.1650 hc         1 9NE       0.006200
     44 HG2C        24.8340     7.5100    33.9170 hc         1 9NE       0.006200
@<TRIPOS>BOND
     1     1     2 1   
     2     1    11 1   
     3     1    27 1   
     4     2     3 1   
     5     2     5 1   
     6     2    40 1   
     7     3     4 1   
     8     3    10 1   
     9     5     6 1   
    10     5    41 1   
    11     5    42 1   
    12     6     7 1   
    13     6    43 1   
    14     6    44 1   
    15     7     8 1   
    16     7     9 1   
    17    11    12 2   
    18    11    13 2   
    19    11    14 1   
    20    14    15 ar  
    21    14    19 ar  
    22    15    16 ar  
    23    15    34 1   
    24    16    17 ar  
    25    16    35 1   
    26    17    18 ar  
    27    17    36 1   
    28    18    19 ar  
    29    18    23 ar  
    30    19    20 ar  
    31    20    21 ar  
    32    20    37 1   
    33    21    22 ar  
    34    21    38 1   
    35    22    23 ar  
    36    22    39 1   
    37    23    24 1   
    38    24    25 1   
    39    24    26 1   
    40    25    28 1   
    41    25    29 1   
    42    25    30 1   
    43    26    31 1   
    44    26    32 1   
    45    26    33 1   
@<TRIPOS>SUBSTRUCTURE
     1 9NE         1 TEMP              0 ****  ****    0 ROOT
