@<TRIPOS>MOLECULE
9NG
   57    62     1     0     0
SMALL
No Charge or Current Charge


@<TRIPOS>ATOM
      1 C4          41.0950    13.1640     1.8250 c5         1 9NG      -0.072700
      2 C5          41.3960    13.4560     0.3580 ca         1 9NG      -0.143300
      3 C6          40.2400    13.7880    -0.3210 ca         1 9NG      -0.020000
      4 C7          42.8520    13.4370     7.0700 cc         1 9NG      -0.481500
      5 C15         41.5620    11.7290     2.2090 c6         1 9NG      -0.049400
      6 C20         40.2270    13.9560    -1.7150 ca         1 9NG      -0.136000
      7 C21         37.2160    18.3750     1.1390 ca         1 9NG      -0.142500
      8 C24         41.3880    11.4410     3.7200 c6         1 9NG       0.189800
      9 C26         44.1640    13.8400     7.0640 cd         1 9NG       0.007000
     10 C28         44.3850    14.9980     7.8550 cd         1 9NG      -0.155000
     11 C31         42.6500    13.6260    -1.7050 ca         1 9NG      -0.041900
     12 C33         41.4550    13.8980    -2.4060 ca         1 9NG      -0.047000
     13 N2          39.1520    13.6790     0.5730 n          1 9NG      -0.221400
     14 C32         37.5800    15.6190     0.5600 ca         1 9NG      -0.088300
     15 C34         37.0300    16.0220     1.7910 ca         1 9NG      -0.100500
     16 C30         36.8490    17.3850     2.0790 ca         1 9NG      -0.072500
     17 C29         37.7690    17.9630    -0.0930 ca         1 9NG      -0.072500
     18 C35         37.9490    16.5990    -0.3790 ca         1 9NG      -0.100500
     19 C12         37.0330    19.8060     1.4280 cc         1 9NG       0.464000
     20 N11         36.5110    20.3430     2.5700 na         1 9NG      -0.222700
     21 N8          36.4910    21.6970     2.4950 nc         1 9NG      -0.197800
     22 N10         36.9950    21.9650     1.3210 nd         1 9NG      -0.038000
     23 N13         37.3390    20.8200     0.6410 nd         1 9NG      -0.388000
     24 C3          39.5300    13.3400     1.8850 c          1 9NG       0.564000
     25 O22         38.7690    13.2360     2.8390 o          1 9NG      -0.528000
     26 N9          42.1060    12.4420     4.5480 n3         1 9NG      -0.731500
     27 C25         41.6830    13.8330     4.2470 c6         1 9NG       0.189800
     28 C14         41.8550    14.1630     2.7440 c6         1 9NG      -0.049400
     29 S1          42.1640    12.0540     6.2010 sy         1 9NG       1.225600
     30 O18         43.1560    10.9790     6.3130 o          1 9NG      -0.543500
     31 O19         40.7780    11.8860     6.6480 o          1 9NG      -0.543500
     32 C27         43.2470    15.4750     8.4600 cc         1 9NG      -0.208000
     33 S16         41.8500    14.4810     8.0570 ss         1 9NG       0.321000
     34 C23         42.6280    13.3870    -0.3160 ca         1 9NG      -0.029000
     35 H2          42.6210    11.5970     1.9480 hc         1 9NG       0.062450
     36 H3          41.0050    10.9840     1.6240 hc         1 9NG       0.062450
     37 H5          37.5760    13.9490    -0.8020 h1         1 9NG       0.076700
     38 H6          37.0690    13.5430     0.8330 h1         1 9NG       0.076700
     39 H7          39.3030    14.1350    -2.2580 ha         1 9NG       0.132000
     40 H8          40.3170    11.4260     3.9710 h1         1 9NG       0.068200
     41 H9          41.7730    10.4300     3.9220 h1         1 9NG       0.068200
     42 H10         44.9500    13.3310     6.5110 ha         1 9NG       0.146000
     43 H11         45.3600    15.4620     7.9690 ha         1 9NG       0.140000
     44 H12         41.4790    14.0490    -3.4830 ha         1 9NG       0.136000
     45 H13         36.7450    15.2770     2.5300 ha         1 9NG       0.123000
     46 H14         36.4210    17.6600     3.0410 ha         1 9NG       0.128000
     47 H15         38.0650    18.6990    -0.8380 ha         1 9NG       0.128000
     48 H16         38.3810    16.3060    -1.3330 ha         1 9NG       0.123000
     49 H17         36.1750    19.8390     3.3800 hn         1 9NG       0.387000
     50 H18         40.6360    13.9920     4.5450 h1         1 9NG       0.068200
     51 H19         42.2860    14.5570     4.8150 h1         1 9NG       0.068200
     52 H20         42.9260    14.1500     2.5030 hc         1 9NG       0.062450
     53 H21         41.5090    15.1880     2.5490 hc         1 9NG       0.062450
     54 H22         43.1220    16.3310     9.1090 h4         1 9NG       0.153000
     55 H23         43.5440    13.1400     0.2160 ha         1 9NG       0.140000
     56 C17         37.7880    14.1400     0.2560 c3         1 9NG       0.149300
     57 Br36        44.3080    13.5360    -2.6550 br         1 9NG      -0.097100
@<TRIPOS>BOND
     1     1     2 1   
     2     1     5 1   
     3     1    24 1   
     4     1    28 1   
     5     2     3 ar  
     6     2    34 ar  
     7     3     6 ar  
     8     3    13 1   
     9     4     9 2   
    10     4    29 1   
    11     4    33 1   
    12     5     8 1   
    13     5    35 1   
    14     5    36 1   
    15     6    12 ar  
    16     6    39 1   
    17     7    16 ar  
    18     7    17 ar  
    19     7    19 1   
    20     8    26 1   
    21     8    40 1   
    22     8    41 1   
    23     9    10 1   
    24     9    42 1   
    25    10    32 2   
    26    10    43 1   
    27    11    12 ar  
    28    11    34 ar  
    29    11    57 1   
    30    12    44 1   
    31    13    24 1   
    32    13    56 1   
    33    14    15 ar  
    34    14    18 ar  
    35    14    56 1   
    36    15    16 ar  
    37    15    45 1   
    38    16    46 1   
    39    17    18 ar  
    40    17    47 1   
    41    18    48 1   
    42    19    20 1   
    43    19    23 2   
    44    20    21 1   
    45    20    49 1   
    46    21    22 2   
    47    22    23 1   
    48    24    25 2   
    49    26    27 1   
    50    26    29 1   
    51    27    28 1   
    52    27    50 1   
    53    27    51 1   
    54    28    52 1   
    55    28    53 1   
    56    29    30 2   
    57    29    31 2   
    58    32    33 1   
    59    32    54 1   
    60    34    55 1   
    61    37    56 1   
    62    38    56 1   
@<TRIPOS>SUBSTRUCTURE
     1 9NG         1 TEMP              0 ****  ****    0 ROOT
