@<TRIPOS>MOLECULE
9NG
   57    62     1     0     0
SMALL
abcg2


@<TRIPOS>ATOM
      1 C4          41.3910    13.2960     2.0380 c5         1 9NG      -0.072700
      2 C5          41.3790    13.5140     0.5450 ca         1 9NG      -0.143300
      3 C6          40.1410    14.0360     0.1640 ca         1 9NG      -0.020000
      4 C7          42.2940    12.2010     7.0700 cc         1 9NG      -0.481500
      5 C15         41.6020    11.8080     2.3910 c6         1 9NG      -0.049400
      6 C20         39.8420    14.3280    -1.1550 ca         1 9NG      -0.136000
      7 C21         37.7500    18.9590     0.5450 ca         1 9NG      -0.142500
      8 C24         41.7540    11.5620     3.8840 c6         1 9NG       0.189800
      9 C26         42.0180    13.3810     7.7130 cd         1 9NG       0.007000
     10 C28         40.8920    13.2710     8.5660 cd         1 9NG      -0.155000
     11 C31         42.0500    13.5520    -1.7340 ca         1 9NG      -0.041900
     12 C33         40.8230    14.0750    -2.1170 ca         1 9NG      -0.047000
     13 N2          39.3290    14.1810     1.2950 n          1 9NG      -0.221400
     14 C32         37.9310    16.2000     0.9960 ca         1 9NG      -0.088300
     15 C34         38.9140    17.0610     1.4800 ca         1 9NG      -0.100500
     16 C30         38.8280    18.4270     1.2590 ca         1 9NG      -0.072500
     17 C29         36.7700    18.0960     0.0480 ca         1 9NG      -0.072500
     18 C35         36.8650    16.7320     0.2710 ca         1 9NG      -0.100500
     19 C12         37.6280    20.3920     0.3060 cc         1 9NG       0.464000
     20 N11         38.2810    21.3720     0.9570 na         1 9NG      -0.222700
     21 N8          37.9030    22.5600     0.4670 nc         1 9NG      -0.197800
     22 N10         37.0430    22.3090    -0.4600 nd         1 9NG      -0.038000
     23 N13         36.8460    20.9800    -0.5900 nd         1 9NG      -0.388000
     24 C3          39.9790    13.7720     2.4350 c          1 9NG       0.564000
     25 O22         39.4970    13.7990     3.5560 o          1 9NG      -0.528000
     26 N9          42.8510    12.4010     4.4060 n3         1 9NG      -0.731500
     27 C25         42.6120    13.8450     4.2200 c6         1 9NG       0.189800
     28 C14         42.4760    14.1460     2.7330 c6         1 9NG      -0.049400
     29 S1          43.5080    11.9420     5.8400 sy         1 9NG       1.225600
     30 O18         44.6050    12.8370     6.1100 o          1 9NG      -0.543500
     31 O19         43.7470    10.5210     5.7630 o          1 9NG      -0.543500
     32 C27         40.3360    12.0200     8.5430 cc         1 9NG      -0.208000
     33 S16         41.1720    10.9570     7.4910 ss         1 9NG       0.321000
     34 C23         42.3510    13.2650    -0.4020 ca         1 9NG      -0.029000
     35 H2          42.5070    11.4720     1.8820 hc         1 9NG       0.062450
     36 H3          40.7690    11.2120     2.0130 hc         1 9NG       0.062450
     37 H5          37.3990    14.1760     0.5230 h1         1 9NG       0.076700
     38 H6          37.5470    14.5010     2.2480 h1         1 9NG       0.076700
     39 H7          38.8860    14.7380    -1.4480 ha         1 9NG       0.132000
     40 H8          40.8240    11.7910     4.4100 h1         1 9NG       0.068200
     41 H9          42.0050    10.5190     4.0560 h1         1 9NG       0.068200
     42 H10         42.6030    14.2790     7.5810 ha         1 9NG       0.146000
     43 H11         40.5140    14.0810     9.1730 ha         1 9NG       0.140000
     44 H12         40.6220    14.2880    -3.1580 ha         1 9NG       0.136000
     45 H13         39.7580    16.6660     2.0300 ha         1 9NG       0.123000
     46 H14         39.6120    19.0720     1.6330 ha         1 9NG       0.128000
     47 H15         35.9360    18.4980    -0.5100 ha         1 9NG       0.128000
     48 H16         36.1030    16.0700    -0.1230 ha         1 9NG       0.123000
     49 H17         38.9420    21.3240     1.7210 hn         1 9NG       0.387000
     50 H18         41.7110    14.1490     4.7590 h1         1 9NG       0.068200
     51 H19         43.4610    14.3910     4.6230 h1         1 9NG       0.068200
     52 H20         43.4270    13.9380     2.2390 hc         1 9NG       0.062450
     53 H21         42.2610    15.2080     2.6020 hc         1 9NG       0.062450
     54 H22         39.4840    11.6600     9.0990 h4         1 9NG       0.153000
     55 H23         43.3150    12.8580    -0.1260 ha         1 9NG       0.140000
     56 C17         37.9830    14.7140     1.2710 c3         1 9NG       0.149300
     57 BR36        43.3750    13.1980    -3.0750 br         1 9NG      -0.097100
@<TRIPOS>BOND
     1     1     2 1   
     2     1     5 1   
     3     1    24 1   
     4     1    28 1   
     5     2     3 ar  
     6     2    34 ar  
     7     3     6 ar  
     8     3    13 1   
     9     4     9 2   
    10     4    29 1   
    11     4    33 1   
    12     5     8 1   
    13     5    35 1   
    14     5    36 1   
    15     6    12 ar  
    16     6    39 1   
    17     7    16 ar  
    18     7    17 ar  
    19     7    19 1   
    20     8    26 1   
    21     8    40 1   
    22     8    41 1   
    23     9    10 1   
    24     9    42 1   
    25    10    32 2   
    26    10    43 1   
    27    11    12 ar  
    28    11    34 ar  
    29    11    57 1   
    30    12    44 1   
    31    13    24 1   
    32    13    56 1   
    33    14    15 ar  
    34    14    18 ar  
    35    14    56 1   
    36    15    16 ar  
    37    15    45 1   
    38    16    46 1   
    39    17    18 ar  
    40    17    47 1   
    41    18    48 1   
    42    19    20 1   
    43    19    23 2   
    44    20    21 1   
    45    20    49 1   
    46    21    22 2   
    47    22    23 1   
    48    24    25 2   
    49    26    27 1   
    50    26    29 1   
    51    27    28 1   
    52    27    50 1   
    53    27    51 1   
    54    28    52 1   
    55    28    53 1   
    56    29    30 2   
    57    29    31 2   
    58    32    33 1   
    59    32    54 1   
    60    34    55 1   
    61    37    56 1   
    62    38    56 1   
@<TRIPOS>SUBSTRUCTURE
     1 9NG         1 TEMP              0 ****  ****    0 ROOT
