@<TRIPOS>MOLECULE
9NH
   74    78     1     0     0
SMALL
No Charge or Current Charge


@<TRIPOS>ATOM
      1 C1          20.9070     3.0250    20.5350 c6         1 9NH       0.150300
      2 C2          18.6530     1.4400    16.9570 ca         1 9NH      -0.136500
      3 C3          22.0260     4.5220    18.9420 c6         1 9NH       0.150300
      4 N6          14.1370    -4.9540    13.6840 ns         1 9NH      -0.149000
      5 C7           7.6280    -9.6850    10.7550 ca         1 9NH      -0.092000
      6 C8           6.8160   -10.3500     9.8250 ca         1 9NH      -0.118000
      7 C9           7.3580   -10.8240     8.6200 ca         1 9NH      -0.048000
      8 C10          8.7320   -10.6470     8.3360 ca         1 9NH      -0.225300
      9 C11          9.5430    -9.9740     9.2790 ca         1 9NH       0.228000
     10 C12         12.4510    -6.3950    12.5470 ca         1 9NH      -0.075000
     11 C13         13.1290    -5.9630    13.7100 ca         1 9NH      -0.017000
     12 C14          9.3470   -11.1830     7.0380 c3         1 9NH       0.356300
     13 C15         12.7860    -6.5330    14.9580 ca         1 9NH      -0.103300
     14 C16         13.4770    -6.0920    16.2460 c3         1 9NH      -0.050800
     15 C19         16.1280    -2.8280    14.3170 ca         1 9NH       0.421300
     16 C20         17.6180    -1.3110    13.4580 ca         1 9NH       0.436900
     17 C21         15.7830    -2.9700    16.7500 c3         1 9NH       0.166900
     18 C22         11.7930    -7.5270    15.0200 ca         1 9NH      -0.097000
     19 C24         11.4500    -7.3930    12.6030 ca         1 9NH      -0.129600
     20 C30         20.7870     1.6950    15.8420 ca         1 9NH      -0.136500
     21 C31         19.0060     0.4160    14.7630 ca         1 9NH       0.268000
     22 C23         11.1320    -7.9570    13.8600 ca         1 9NH      -0.110000
     23 C25         10.7500    -7.8240    11.3250 c          1 9NH       0.614700
     24 N3           9.7660    -8.7950    11.4640 ns         1 9NH      -0.159000
     25 C26          8.9910    -9.4740    10.4840 ca         1 9NH      -0.077000
     26 F1           8.4370   -11.7590     6.2190 f          1 9NH      -0.107000
     27 F3          10.2910   -12.1200     7.2840 f          1 9NH      -0.107000
     28 F2           9.9390   -10.2000     6.3220 f          1 9NH      -0.107000
     29 N1          17.4290    -1.6650    12.1830 nb         1 9NH      -0.266000
     30 C17         16.5350    -2.6430    11.9620 ca         1 9NH       0.220900
     31 C18         15.8350    -3.2750    13.0080 ca         1 9NH      -0.348600
     32 N4          17.0260    -1.8470    14.5300 nb         1 9NH      -0.332000
     33 N7          18.5690    -0.3220    13.6540 nu         1 9NH      -0.909900
     34 O2          11.0240    -7.3180    10.2410 o          1 9NH      -0.551100
     35 O3          15.4990    -3.3990    15.4010 os         1 9NH      -0.489300
     36 C28         18.1760     0.6830    15.8690 ca         1 9NH      -0.112000
     37 C29         19.9660     1.9530    16.9560 ca         1 9NH       0.276000
     38 C5          20.3100     0.9390    14.7540 ca         1 9NH      -0.112000
     39 N2          21.4280     4.4030    20.3040 n7         1 9NH      -0.863400
     40 C4          21.0480     4.0770    17.8020 c6         1 9NH       0.195800
     41 N5          20.4650     2.7150    18.0400 nh         1 9NH      -0.787400
     42 C6          19.9090     2.5510    19.4250 c6         1 9NH       0.195800
     43 H11         20.4090     2.9780    21.5150 h1         1 9NH       0.040700
     44 H12         21.7530     2.3220    20.5670 h1         1 9NH       0.040700
     45 H21         17.9860     1.6380    17.7910 ha         1 9NH       0.116000
     46 H31         22.9300     3.8970    18.8910 h1         1 9NH       0.040700
     47 H32         22.3390     5.5620    18.7660 h1         1 9NH       0.040700
     48 H61N        14.3780    -4.5990    14.6000 hn         1 9NH       0.173000
     49 H71          7.1930    -9.3220    11.6840 ha         1 9NH       0.122000
     50 H81          5.7600   -10.5010    10.0380 ha         1 9NH       0.127000
     51 H91          6.7030   -11.3390     7.9200 ha         1 9NH       0.137000
     52 H121        12.6810    -5.9510    11.5830 ha         1 9NH       0.168000
     53 H161        14.5660    -6.2030    16.1710 hc         1 9NH       0.044700
     54 H162        13.2580    -5.0410    16.4680 hc         1 9NH       0.044700
     55 H163        13.1490    -6.6830    17.1090 hc         1 9NH       0.044700
     56 H211        15.1850    -3.5460    17.4680 h1         1 9NH       0.055367
     57 H212        16.8420    -3.1210    16.9950 h1         1 9NH       0.055367
     58 H213        15.5420    -1.9080    16.8840 h1         1 9NH       0.055367
     59 H221        11.5270    -7.9720    15.9770 ha         1 9NH       0.114000
     60 H301        21.8060     2.0710    15.8210 ha         1 9NH       0.116000
     61 H231        10.3730    -8.7290    13.9610 ha         1 9NH       0.114000
     62 H31N         9.5730    -9.0710    12.4170 hn         1 9NH       0.157000
     63 H171        16.3860    -2.9170    10.9180 h4         1 9NH       0.057100
     64 H71N        19.1130    -0.1540    12.8080 hn         1 9NH       0.516000
     65 H281        17.1510     0.3280    15.8890 ha         1 9NH       0.127000
     66 H51         20.9660     0.7510    13.9080 ha         1 9NH       0.127000
     67 H21N        22.1490     4.6130    21.0070 hn         1 9NH       0.414000
     68 H41         21.5950     4.1080    16.8480 h1         1 9NH       0.044450
     69 H42         20.2360     4.8140    17.7280 h1         1 9NH       0.044450
     70 H61         18.9770     3.1280    19.5200 h1         1 9NH       0.044450
     71 H62         19.6610     1.4960    19.6130 h1         1 9NH       0.044450
     72 C27         14.8520    -4.3610    12.6530 c          1 9NH       0.645700
     73 F4          10.8720    -9.8630     9.0480 f          1 9NH      -0.143000
     74 O1          14.7190    -4.6980    11.4840 o          1 9NH      -0.593100
@<TRIPOS>BOND
     1     1    39 1   
     2     1    42 1   
     3     1    43 1   
     4     1    44 1   
     5     2    36 ar  
     6     2    37 ar  
     7     2    45 1   
     8     3    39 1   
     9     3    40 1   
    10     3    46 1   
    11     3    47 1   
    12     4    11 1   
    13     4    48 1   
    14     4    72 1   
    15     5     6 ar  
    16     5    25 ar  
    17     5    49 1   
    18     6     7 ar  
    19     6    50 1   
    20     7     8 ar  
    21     7    51 1   
    22     8     9 ar  
    23     8    12 1   
    24     9    25 ar  
    25     9    73 1   
    26    10    11 ar  
    27    10    19 ar  
    28    10    52 1   
    29    11    13 ar  
    30    12    26 1   
    31    12    27 1   
    32    12    28 1   
    33    13    14 1   
    34    13    18 ar  
    35    14    53 1   
    36    14    54 1   
    37    14    55 1   
    38    15    31 ar  
    39    15    32 ar  
    40    15    35 1   
    41    16    29 ar  
    42    16    32 ar  
    43    16    33 1   
    44    17    35 1   
    45    17    56 1   
    46    17    57 1   
    47    17    58 1   
    48    18    22 ar  
    49    18    59 1   
    50    19    22 ar  
    51    19    23 1   
    52    20    37 ar  
    53    20    38 ar  
    54    20    60 1   
    55    21    33 1   
    56    21    36 ar  
    57    21    38 ar  
    58    22    61 1   
    59    23    24 1   
    60    23    34 2   
    61    24    25 1   
    62    24    62 1   
    63    29    30 ar  
    64    30    31 ar  
    65    30    63 1   
    66    31    72 1   
    67    33    64 1   
    68    36    65 1   
    69    37    41 1   
    70    38    66 1   
    71    39    67 1   
    72    40    41 1   
    73    40    68 1   
    74    40    69 1   
    75    41    42 1   
    76    42    70 1   
    77    42    71 1   
    78    72    74 2   
@<TRIPOS>SUBSTRUCTURE
     1 9NH         1 TEMP              0 ****  ****    0 ROOT
