@<TRIPOS>MOLECULE
9NH
   74    78     1     0     0
SMALL
abcg2


@<TRIPOS>ATOM
      1 C1          21.0060     3.0700    20.2640 c6         1 9NH       0.150300
      2 C2          18.9830     0.8960    17.1170 ca         1 9NH      -0.136500
      3 C3          21.5850     4.7370    18.6490 c6         1 9NH       0.150300
      4 N6          14.1420    -5.1530    13.9320 ns         1 9NH      -0.149000
      5 C7           7.6730    -8.7470    10.4030 ca         1 9NH      -0.092000
      6 C8           6.8970    -9.1590     9.3290 ca         1 9NH      -0.118000
      7 C9           7.4620    -9.9050     8.3030 ca         1 9NH      -0.048000
      8 C10          8.8050   -10.2650     8.3680 ca         1 9NH      -0.225300
      9 C11          9.5610    -9.8680     9.4640 ca         1 9NH       0.228000
     10 C12         12.5610    -6.5970    12.7400 ca         1 9NH      -0.075000
     11 C13         13.2300    -6.2200    13.9010 ca         1 9NH      -0.017000
     12 C14          9.4450   -11.0870     7.2860 c3         1 9NH       0.356300
     13 C15         12.9800    -6.8980    15.1120 ca         1 9NH      -0.103300
     14 C16         13.6870    -6.5120    16.3800 c3         1 9NH      -0.050800
     15 C19         16.0350    -2.9170    14.4830 ca         1 9NH       0.421300
     16 C20         17.5660    -1.5000    13.5720 ca         1 9NH       0.436900
     17 C21         15.6380    -2.7620    16.8420 c3         1 9NH       0.166900
     18 C22         12.0630    -7.9450    15.1050 ca         1 9NH      -0.097000
     19 C24         11.6420    -7.6450    12.7590 ca         1 9NH      -0.129600
     20 C30         20.4110     2.0000    15.5480 ca         1 9NH      -0.136500
     21 C31         18.9210     0.2420    14.7900 ca         1 9NH       0.268000
     22 C23         11.3970    -8.3270    13.9490 ca         1 9NH      -0.110000
     23 C25         10.9720    -7.9910    11.4710 c          1 9NH       0.614700
     24 N3           9.8000    -8.6930    11.5840 ns         1 9NH      -0.159000
     25 C26          9.0220    -9.0890    10.4830 ca         1 9NH      -0.077000
     26 F1           8.5790   -11.3970     6.3040 f          1 9NH      -0.107000
     27 F3           9.9380   -12.2570     7.7550 f          1 9NH      -0.107000
     28 F2          10.4830   -10.4420     6.7020 f          1 9NH      -0.107000
     29 N1          17.4120    -1.9850    12.3190 nb         1 9NH      -0.266000
     30 C17         16.5350    -2.9650    12.1840 ca         1 9NH       0.220900
     31 C18         15.7840    -3.5130    13.2270 ca         1 9NH      -0.348600
     32 N4          16.9000    -1.9350    14.6490 nb         1 9NH      -0.332000
     33 N7          18.4740    -0.5040    13.6860 nu         1 9NH      -0.909900
     34 O2          11.4310    -7.6670    10.3830 o          1 9NH      -0.551100
     35 O3          15.3720    -3.3600    15.5560 os         1 9NH      -0.489300
     36 C28         18.4730     0.0920    16.1010 ca         1 9NH      -0.112000
     37 C29         19.9660     1.8650    16.8760 ca         1 9NH       0.276000
     38 C5          19.9000     1.2130    14.5360 ca         1 9NH      -0.112000
     39 N2          21.0610     4.5040    19.9930 n7         1 9NH      -0.863400
     40 C4          20.6720     4.0820    17.6270 c6         1 9NH       0.195800
     41 N5          20.5280     2.6460    17.8970 nh         1 9NH      -0.787400
     42 C6          20.0860     2.3860    19.2640 c6         1 9NH       0.195800
     43 H11         20.6190     2.9070    21.2710 h1         1 9NH       0.040700
     44 H12         22.0000     2.6000    20.2020 h1         1 9NH       0.040700
     45 H21         18.5890     0.7530    18.1110 ha         1 9NH       0.116000
     46 H31         22.6010     4.3310    18.5260 h1         1 9NH       0.040700
     47 H32         21.6230     5.8110    18.4570 h1         1 9NH       0.040700
     48 H61N        14.3450    -4.7590    14.8400 hn         1 9NH       0.173000
     49 H71          7.2440    -8.1490    11.1960 ha         1 9NH       0.122000
     50 H81          5.8520    -8.8850     9.2830 ha         1 9NH       0.127000
     51 H91          6.8660   -10.2130     7.4570 ha         1 9NH       0.137000
     52 H121        12.7470    -6.0760    11.8180 ha         1 9NH       0.168000
     53 H161        14.7730    -6.5410    16.2550 hc         1 9NH       0.044700
     54 H162        13.4260    -5.4970    16.6930 hc         1 9NH       0.044700
     55 H163        13.4170    -7.1890    17.1890 hc         1 9NH       0.044700
     56 H211        14.9920    -3.2940    17.5330 h1         1 9NH       0.055367
     57 H212        16.6840    -2.8960    17.1090 h1         1 9NH       0.055367
     58 H213        15.3920    -1.7020    16.8210 h1         1 9NH       0.055367
     59 H221        11.8790    -8.4800    16.0280 ha         1 9NH       0.114000
     60 H301        21.1840     2.7140    15.3040 ha         1 9NH       0.116000
     61 H231        10.7190    -9.1690    13.9860 ha         1 9NH       0.114000
     62 H31N         9.3410    -8.7060    12.4820 hn         1 9NH       0.157000
     63 H171        16.3990    -3.3670    11.1870 h4         1 9NH       0.057100
     64 H71N        18.9050    -0.2680    12.8040 hn         1 9NH       0.516000
     65 H281        17.7190    -0.6400    16.3330 ha         1 9NH       0.127000
     66 H51         20.2720     1.3410    13.5250 ha         1 9NH       0.127000
     67 H21N        21.6530     4.9610    20.6770 hn         1 9NH       0.414000
     68 H41         21.0890     4.2300    16.6350 h1         1 9NH       0.044450
     69 H42         19.6850     4.5690    17.6550 h1         1 9NH       0.044450
     70 H61         19.0520     2.7330    19.4200 h1         1 9NH       0.044450
     71 H62         20.1110     1.3120    19.4460 h1         1 9NH       0.044450
     72 C27         14.8550    -4.6230    12.8950 c          1 9NH       0.645700
     73 F4          10.8370   -10.2800     9.5580 f          1 9NH      -0.143000
     74 O1          14.7600    -5.0340    11.7370 o          1 9NH      -0.593100
@<TRIPOS>BOND
     1     1    39 1   
     2     1    42 1   
     3     1    43 1   
     4     1    44 1   
     5     2    36 ar  
     6     2    37 ar  
     7     2    45 1   
     8     3    39 1   
     9     3    40 1   
    10     3    46 1   
    11     3    47 1   
    12     4    11 1   
    13     4    48 1   
    14     4    72 1   
    15     5     6 ar  
    16     5    25 ar  
    17     5    49 1   
    18     6     7 ar  
    19     6    50 1   
    20     7     8 ar  
    21     7    51 1   
    22     8     9 ar  
    23     8    12 1   
    24     9    25 ar  
    25     9    73 1   
    26    10    11 ar  
    27    10    19 ar  
    28    10    52 1   
    29    11    13 ar  
    30    12    26 1   
    31    12    27 1   
    32    12    28 1   
    33    13    14 1   
    34    13    18 ar  
    35    14    53 1   
    36    14    54 1   
    37    14    55 1   
    38    15    31 ar  
    39    15    32 ar  
    40    15    35 1   
    41    16    29 ar  
    42    16    32 ar  
    43    16    33 1   
    44    17    35 1   
    45    17    56 1   
    46    17    57 1   
    47    17    58 1   
    48    18    22 ar  
    49    18    59 1   
    50    19    22 ar  
    51    19    23 1   
    52    20    37 ar  
    53    20    38 ar  
    54    20    60 1   
    55    21    33 1   
    56    21    36 ar  
    57    21    38 ar  
    58    22    61 1   
    59    23    24 1   
    60    23    34 2   
    61    24    25 1   
    62    24    62 1   
    63    29    30 ar  
    64    30    31 ar  
    65    30    63 1   
    66    31    72 1   
    67    33    64 1   
    68    36    65 1   
    69    37    41 1   
    70    38    66 1   
    71    39    67 1   
    72    40    41 1   
    73    40    68 1   
    74    40    69 1   
    75    41    42 1   
    76    42    70 1   
    77    42    71 1   
    78    72    74 2   
@<TRIPOS>SUBSTRUCTURE
     1 9NH         1 TEMP              0 ****  ****    0 ROOT
