@<TRIPOS>MOLECULE
9NI
   26    26     1     0     0
SMALL
bcc


@<TRIPOS>ATOM
      1 C4           4.8830     0.0570   -13.6920 c2         1 9NI      -0.165200
      2 C6           4.6640     2.0750   -12.2060 c2         1 9NI      -0.116400
      3 C1           4.7210    -2.2770   -12.7860 c3         1 9NI      -0.022500
      4 C3           4.7020    -0.7700   -12.6640 c2         1 9NI      -0.110400
      5 C2           4.5470    -2.7960   -14.2090 c3         1 9NI      -0.085100
      6 C5           4.8910     1.5490   -13.5920 c6         1 9NI      -0.003000
      7 C8           4.4650    -0.2390   -11.2770 c6         1 9NI      -0.003000
      8 C7           4.4720     1.2520   -11.1780 c2         1 9NI      -0.166200
      9 C9           4.6620     3.5650   -12.0610 c3         1 9NI      -0.051900
     10 C            6.0010    -2.8570   -12.1750 c3         1 9NI      -0.085100
     11 H1           5.0380    -0.3440   -14.6880 ha         1 9NI       0.121000
     12 H2           3.8770    -2.6520   -12.1930 hc         1 9NI       0.047700
     13 H3           4.4830    -3.8840   -14.2050 hc         1 9NI       0.033533
     14 H4           3.6400    -2.4090   -14.6750 hc         1 9NI       0.033533
     15 H5           5.3940    -2.5250   -14.8430 hc         1 9NI       0.033533
     16 H6           5.8420     1.9400   -13.9790 hc         1 9NI       0.050200
     17 H7           4.1360     1.9710   -14.2680 hc         1 9NI       0.050200
     18 H8           3.5080    -0.6300   -10.9040 hc         1 9NI       0.050700
     19 H9           5.2080    -0.6520   -10.5840 hc         1 9NI       0.050700
     20 H10          4.3080     1.6690   -10.1890 ha         1 9NI       0.119000
     21 H11          4.4880     3.8740   -11.0300 hc         1 9NI       0.038367
     22 H12          5.6140     3.9930   -12.3850 hc         1 9NI       0.038367
     23 H13          3.8890     4.0190   -12.6860 hc         1 9NI       0.038367
     24 H14          6.1460    -2.5490   -11.1400 hc         1 9NI       0.033533
     25 H15          5.9750    -3.9470   -12.1910 hc         1 9NI       0.033533
     26 H16          6.8760    -2.5350   -12.7450 hc         1 9NI       0.033533
@<TRIPOS>BOND
     1     1     4 2   
     2     1     6 1   
     3     1    11 1   
     4     2     6 1   
     5     2     8 2   
     6     2     9 1   
     7     3     4 1   
     8     3     5 1   
     9     3    10 1   
    10     3    12 1   
    11     4     7 1   
    12     5    13 1   
    13     5    14 1   
    14     5    15 1   
    15     6    16 1   
    16     6    17 1   
    17     7     8 1   
    18     7    18 1   
    19     7    19 1   
    20     8    20 1   
    21     9    21 1   
    22     9    22 1   
    23     9    23 1   
    24    10    24 1   
    25    10    25 1   
    26    10    26 1   
@<TRIPOS>SUBSTRUCTURE
     1 9NI         1 TEMP              0 ****  ****    0 ROOT
