@<TRIPOS>MOLECULE
9NI
   26    26     1     0     0
SMALL
No Charge or Current Charge


@<TRIPOS>ATOM
      1 C4           5.3480     0.0250   -13.5140 c2         1 9NI      -0.215200
      2 C6           4.6200     2.0880   -12.1990 c2         1 9NI      -0.116400
      3 C1           4.8810    -2.3120   -12.6680 c3         1 9NI      -0.022500
      4 C3           4.8300    -0.7900   -12.5770 c2         1 9NI      -0.110400
      5 C2           4.0960    -2.8340   -13.8910 c3         1 9NI      -0.085100
      6 C5           5.3090     1.5440   -13.4440 c6         1 9NI      -0.003000
      7 C8           4.1410    -0.2400   -11.3310 c6         1 9NI      -0.003000
      8 C7           4.1010     1.2790   -11.2610 c2         1 9NI      -0.216200
      9 C9           4.5700     3.6010   -12.1100 c3         1 9NI      -0.051900
     10 C            6.3350    -2.8340   -12.6520 c3         1 9NI      -0.085100
     11 H1           5.8370    -0.3890   -14.3970 ha         1 9NI       0.171000
     12 H2           4.3910    -2.7390   -11.7820 hc         1 9NI       0.047700
     13 H3           4.0760    -3.9310   -13.8990 hc         1 9NI       0.033533
     14 H4           3.0600    -2.4760   -13.8640 hc         1 9NI       0.033533
     15 H5           4.5530    -2.4940   -14.8280 hc         1 9NI       0.033533
     16 H6           6.3370     1.9280   -13.4870 hc         1 9NI       0.050200
     17 H7           4.7990     1.9270   -14.3380 hc         1 9NI       0.050200
     18 H8           3.1120    -0.6240   -11.2880 hc         1 9NI       0.050700
     19 H9           4.6510    -0.6230   -10.4360 hc         1 9NI       0.050700
     20 H10          3.6130     1.6960   -10.3790 ha         1 9NI       0.169000
     21 H11          4.0640     3.9380   -11.1970 hc         1 9NI       0.038367
     22 H12          5.5790     4.0290   -12.1050 hc         1 9NI       0.038367
     23 H13          4.0290     4.0280   -12.9630 hc         1 9NI       0.038367
     24 H14          6.8610    -2.4750   -11.7600 hc         1 9NI       0.033533
     25 H15          6.3520    -3.9300   -12.6390 hc         1 9NI       0.033533
     26 H16          6.8860    -2.4930   -13.5370 hc         1 9NI       0.033533
@<TRIPOS>BOND
     1     1     4 2   
     2     1     6 1   
     3     1    11 1   
     4     2     6 1   
     5     2     8 2   
     6     2     9 1   
     7     3     4 1   
     8     3     5 1   
     9     3    10 1   
    10     3    12 1   
    11     4     7 1   
    12     5    13 1   
    13     5    14 1   
    14     5    15 1   
    15     6    16 1   
    16     6    17 1   
    17     7     8 1   
    18     7    18 1   
    19     7    19 1   
    20     8    20 1   
    21     9    21 1   
    22     9    22 1   
    23     9    23 1   
    24    10    24 1   
    25    10    25 1   
    26    10    26 1   
@<TRIPOS>SUBSTRUCTURE
     1 9NI         1 TEMP              0 ****  ****    0 ROOT
