@<TRIPOS>MOLECULE
9NJ
   73    77     1     0     0
SMALL
No Charge or Current Charge


@<TRIPOS>ATOM
      1 N3          12.8200    26.2510     2.5200 nc         1 9NJ      -0.574100
      2 C4          14.8850    25.0270     2.8960 ca         1 9NJ      -0.231900
      3 C5          11.5340    26.1230     3.0050 ca         1 9NJ       0.087400
      4 C6          12.0270    22.0450     4.5520 c          1 9NJ       0.584100
      5 C7          11.3920    25.0230     3.8080 ca         1 9NJ      -0.086200
      6 C8          15.4530    23.8410     2.4090 ca         1 9NJ       0.645300
      7 C10         12.9660    23.2610     4.7690 c3         1 9NJ       0.008300
      8 C13         15.7290    26.1150     3.1730 ca         1 9NJ       0.018000
      9 C15         17.5900    24.7100     2.5570 ca         1 9NJ       0.632300
     10 C20         13.1640    23.6950     6.2690 c6         1 9NJ      -0.063700
     11 C21          9.2230    26.7050     3.3850 ca         1 9NJ       0.141000
     12 C22         10.9550    18.5280     1.0900 c6         1 9NJ      -0.054900
     13 C24         17.1060    25.9390     3.0090 ca         1 9NJ      -0.233000
     14 C26         11.2240    20.4060     2.8070 c6         1 9NJ       0.107700
     15 O32         18.9490    24.5740     2.4110 os         1 9NJ      -0.466300
     16 O25         14.6220    22.8040     2.0480 os         1 9NJ      -0.468300
     17 C35         15.1590    21.6040     1.4530 c3         1 9NJ       0.157900
     18 N9          16.7820    23.6810     2.2530 nb         1 9NJ      -0.838000
     19 C1          13.4390    25.1740     3.0390 cd         1 9NJ       0.493400
     20 C14         10.4570    26.9890     2.7720 ca         1 9NJ      -0.098000
     21 F29          8.1690    27.5230     3.1780 f          1 9NJ      -0.192000
     22 C27          9.0790    25.5780     4.2210 ca         1 9NJ      -0.131000
     23 C16         10.1750    24.7210     4.4460 ca         1 9NJ      -0.072000
     24 N2          12.6030    24.3720     3.8470 na         1 9NJ      -0.171600
     25 C33         13.8510    22.5700     7.1050 c6         1 9NJ      -0.072900
     26 C38         14.0360    22.9830     8.5860 c6         1 9NJ      -0.071400
     27 C39         14.8420    24.2970     8.7030 c6         1 9NJ      -0.076400
     28 C37         14.1740    25.4270     7.8870 c6         1 9NJ      -0.071400
     29 C34         13.9840    25.0170     6.4070 c6         1 9NJ      -0.072900
     30 N11         12.1110    21.4640     3.3050 ns         1 9NJ      -0.483900
     31 C30          9.8800    21.0170     2.3260 c6         1 9NJ      -0.087900
     32 C23          8.9270    19.9270     1.7750 c6         1 9NJ      -0.054900
     33 C18          9.5940    19.1200     0.6250 c6         1 9NJ      -0.187700
     34 C31         11.8890    19.6330     1.6420 c6         1 9NJ      -0.087900
     35 C12          8.6510    18.0360     0.0450 c          1 9NJ       0.711000
     36 O19          8.3200    18.1320    -1.1280 o          1 9NJ      -0.736000
     37 O28          8.2770    17.1340     0.7800 o          1 9NJ      -0.736000
     38 H1          13.9500    22.9030     4.4510 h1         1 9NJ       0.076700
     39 H2          15.3280    27.0650     3.5250 ha         1 9NJ       0.136000
     40 H3          12.1590    23.8760     6.6780 hc         1 9NJ       0.075700
     41 H6          17.7990    26.7450     3.2270 ha         1 9NJ       0.141000
     42 H7          11.0240    19.7010     3.6290 h1         1 9NJ       0.073700
     43 H8          20.6230    23.4240     1.9030 h1         1 9NJ       0.048367
     44 H9          19.2860    22.5130     2.6340 h1         1 9NJ       0.048367
     45 H10         19.1650    23.0800     0.9500 h1         1 9NJ       0.048367
     46 H11         14.3570    20.9050     1.1970 h1         1 9NJ       0.054700
     47 H12         15.7070    21.8360     0.5310 h1         1 9NJ       0.054700
     48 H13         15.8430    21.0950     2.1450 h1         1 9NJ       0.054700
     49 H14         10.5740    27.8630     2.1370 ha         1 9NJ       0.141000
     50 H15          8.1220    25.3750     4.6950 ha         1 9NJ       0.134000
     51 H16         10.0650    23.8610     5.0990 ha         1 9NJ       0.145000
     52 H17         13.2650    21.6430     7.0700 hc         1 9NJ       0.045200
     53 H18         14.8310    22.3300     6.6700 hc         1 9NJ       0.045200
     54 H19         13.0530    23.1070     9.0620 hc         1 9NJ       0.039700
     55 H20         14.5490    22.1820     9.1350 hc         1 9NJ       0.039700
     56 H21         15.8680    24.1360     8.3440 hc         1 9NJ       0.034200
     57 H22         14.9220    24.5940     9.7580 hc         1 9NJ       0.034200
     58 H23         14.7860    26.3380     7.9450 hc         1 9NJ       0.039700
     59 H24         13.2000    25.6780     8.3300 hc         1 9NJ       0.039700
     60 H25         14.9670    24.8980     5.9300 hc         1 9NJ       0.045200
     61 H26         13.4800    25.8410     5.8840 hc         1 9NJ       0.045200
     62 H27         12.7750    21.8790     2.6600 hn         1 9NJ       0.321500
     63 H28          9.3890    21.5440     3.1550 hc         1 9NJ       0.025950
     64 H29         10.0690    21.7700     1.5480 hc         1 9NJ       0.025950
     65 H30          8.0010    20.3940     1.4140 hc         1 9NJ       0.046700
     66 H31          8.6370    19.2500     2.5900 hc         1 9NJ       0.046700
     67 H32          9.8040    19.8240    -0.1920 hc         1 9NJ       0.032700
     68 H33         12.8290    19.1790     1.9840 hc         1 9NJ       0.025950
     69 H34         12.1480    20.3280     0.8310 hc         1 9NJ       0.025950
     70 O17         11.2550    21.6180     5.4020 o          1 9NJ      -0.613100
     71 C36         19.5300    23.3380     1.9520 c3         1 9NJ       0.161900
     72 H4          11.4440    18.0150     0.2510 hc         1 9NJ       0.046700
     73 H5          10.7890    17.7670     1.8660 hc         1 9NJ       0.046700
@<TRIPOS>BOND
     1     1     3 1   
     2     1    19 2   
     3     2     6 ar  
     4     2     8 ar  
     5     2    19 1   
     6     3     5 ar  
     7     3    20 ar  
     8     4     7 1   
     9     4    30 1   
    10     4    70 2   
    11     5    23 ar  
    12     5    24 1   
    13     6    16 1   
    14     6    18 ar  
    15     7    10 1   
    16     7    24 1   
    17     7    38 1   
    18     8    13 ar  
    19     8    39 1   
    20     9    13 ar  
    21     9    15 1   
    22     9    18 ar  
    23    10    25 1   
    24    10    29 1   
    25    10    40 1   
    26    11    20 ar  
    27    11    21 1   
    28    11    22 ar  
    29    12    33 1   
    30    12    34 1   
    31    12    72 1   
    32    12    73 1   
    33    13    41 1   
    34    14    30 1   
    35    14    31 1   
    36    14    34 1   
    37    14    42 1   
    38    15    71 1   
    39    16    17 1   
    40    17    46 1   
    41    17    47 1   
    42    17    48 1   
    43    19    24 1   
    44    20    49 1   
    45    22    23 ar  
    46    22    50 1   
    47    23    51 1   
    48    25    26 1   
    49    25    52 1   
    50    25    53 1   
    51    26    27 1   
    52    26    54 1   
    53    26    55 1   
    54    27    28 1   
    55    27    56 1   
    56    27    57 1   
    57    28    29 1   
    58    28    58 1   
    59    28    59 1   
    60    29    60 1   
    61    29    61 1   
    62    30    62 1   
    63    31    32 1   
    64    31    63 1   
    65    31    64 1   
    66    32    33 1   
    67    32    65 1   
    68    32    66 1   
    69    33    35 1   
    70    33    67 1   
    71    34    68 1   
    72    34    69 1   
    73    35    36 1   
    74    35    37 1   
    75    43    71 1   
    76    44    71 1   
    77    45    71 1   
@<TRIPOS>SUBSTRUCTURE
     1 9NJ         1 TEMP              0 ****  ****    0 ROOT
