@<TRIPOS>MOLECULE
9NJ
   73    77     1     0     0
SMALL
abcg2


@<TRIPOS>ATOM
      1 N3          12.8120    26.0430     2.4730 nc         1 9NJ      -0.574100
      2 C4          14.9390    24.8980     2.9220 ca         1 9NJ      -0.231900
      3 C5          11.5080    25.9030     2.9090 ca         1 9NJ       0.087400
      4 C6          12.2380    21.9850     4.5530 c          1 9NJ       0.584100
      5 C7          11.4140    24.8090     3.7950 ca         1 9NJ      -0.086200
      6 C8          15.5320    23.7560     2.3690 ca         1 9NJ       0.645300
      7 C10         13.1400    23.2260     4.7700 c3         1 9NJ       0.008300
      8 C13         15.8070    25.9200     3.3150 ca         1 9NJ       0.018000
      9 C15         17.6440    24.5740     2.6570 ca         1 9NJ       0.632300
     10 C20         13.2080    23.6680     6.2390 c6         1 9NJ      -0.063700
     11 C21          9.1990    26.2700     3.1910 ca         1 9NJ       0.141000
     12 C22         10.8740    18.7820     1.0360 c6         1 9NJ      -0.054900
     13 C24         17.1740    25.7780     3.1890 ca         1 9NJ      -0.233000
     14 C26         11.2700    20.5280     2.8130 c6         1 9NJ       0.107700
     15 O32         18.9740    24.4160     2.5540 os         1 9NJ      -0.466300
     16 O25         14.7190    22.7780     1.9200 os         1 9NJ      -0.468300
     17 C35         15.3320    21.6100     1.3430 c3         1 9NJ       0.157900
     18 N9          16.8420    23.5990     2.2500 nb         1 9NJ      -0.838000
     19 C1          13.4900    25.0730     3.0590 cd         1 9NJ       0.493400
     20 C14         10.3770    26.6570     2.5900 ca         1 9NJ      -0.098000
     21 F29          8.0670    26.9730     2.9070 f          1 9NJ      -0.192000
     22 C27          9.0890    25.1970     4.0780 ca         1 9NJ      -0.131000
     23 C16         10.2120    24.4450     4.3950 ca         1 9NJ      -0.072000
     24 N2          12.6960    24.2860     3.8650 na         1 9NJ      -0.171600
     25 C33         14.0650    22.6760     7.0390 c6         1 9NJ      -0.072900
     26 C38         14.1660    23.0740     8.5120 c6         1 9NJ      -0.071400
     27 C39         14.7040    24.4960     8.6710 c6         1 9NJ      -0.076400
     28 C37         13.8680    25.4900     7.8650 c6         1 9NJ      -0.071400
     29 C34         13.7730    25.0850     6.3930 c6         1 9NJ      -0.072900
     30 N11         12.1980    21.5500     3.2870 ns         1 9NJ      -0.483900
     31 C30          9.8980    21.1360     2.5060 c6         1 9NJ      -0.087900
     32 C23          8.9350    20.0880     1.9520 c6         1 9NJ      -0.054900
     33 C18          9.5090    19.3910     0.7080 c6         1 9NJ      -0.187700
     34 C31         11.8460    19.8250     1.5870 c6         1 9NJ      -0.087900
     35 C12          8.4840    18.3740     0.1640 c          1 9NJ       0.711000
     36 O19          7.6490    18.8130    -0.6730 o          1 9NJ      -0.736000
     37 O28          8.5240    17.1990     0.6120 o          1 9NJ      -0.736000
     38 H1          14.1460    22.9570     4.4490 h1         1 9NJ       0.076700
     39 H2          15.3900    26.8260     3.7350 ha         1 9NJ       0.136000
     40 H3          12.1950    23.6560     6.6490 hc         1 9NJ       0.075700
     41 H6          17.8650    26.5490     3.4960 ha         1 9NJ       0.141000
     42 H7          11.1590    19.8000     3.6200 h1         1 9NJ       0.073700
     43 H8          20.5510    23.2710     2.0390 h1         1 9NJ       0.048367
     44 H9          19.1460    22.3380     2.6280 h1         1 9NJ       0.048367
     45 H10         19.1210    23.0390     0.9930 h1         1 9NJ       0.048367
     46 H11         14.5070    20.9850     1.0180 h1         1 9NJ       0.054700
     47 H12         15.9560    21.8870     0.4950 h1         1 9NJ       0.054700
     48 H13         15.9340    21.0900     2.0870 h1         1 9NJ       0.054700
     49 H14         10.4140    27.4980     1.9110 ha         1 9NJ       0.141000
     50 H15          8.1250    24.9630     4.5080 ha         1 9NJ       0.134000
     51 H16         10.1390    23.6120     5.0790 ha         1 9NJ       0.145000
     52 H17         13.6560    21.6700     6.9470 hc         1 9NJ       0.045200
     53 H18         15.0700    22.6590     6.6000 hc         1 9NJ       0.045200
     54 H19         13.1730    23.0100     8.9710 hc         1 9NJ       0.039700
     55 H20         14.8050    22.3630     9.0430 hc         1 9NJ       0.039700
     56 H21         15.7410    24.5300     8.3180 hc         1 9NJ       0.034200
     57 H22         14.7190    24.7810     9.7260 hc         1 9NJ       0.034200
     58 H23         14.2900    26.4950     7.9440 hc         1 9NJ       0.039700
     59 H24         12.8580    25.5370     8.2870 hc         1 9NJ       0.039700
     60 H25         14.7700    25.1250     5.9410 hc         1 9NJ       0.045200
     61 H26         13.1510    25.8030     5.8550 hc         1 9NJ       0.045200
     62 H27         12.7290    22.0610     2.5960 hn         1 9NJ       0.321500
     63 H28          9.4920    21.5940     3.4100 hc         1 9NJ       0.025950
     64 H29         10.0330    21.9390     1.7720 hc         1 9NJ       0.025950
     65 H30          7.9780    20.5570     1.7090 hc         1 9NJ       0.046700
     66 H31          8.7350    19.3330     2.7210 hc         1 9NJ       0.046700
     67 H32          9.6420    20.1540    -0.0660 hc         1 9NJ       0.032700
     68 H33         12.7990    19.3600     1.8500 hc         1 9NJ       0.025950
     69 H34         12.0560    20.5770     0.8180 hc         1 9NJ       0.025950
     70 O17         11.6060    21.4690     5.4720 o          1 9NJ      -0.613100
     71 C36         19.4680    23.1800     2.0160 c3         1 9NJ       0.161900
     72 H4          11.3020    18.3190     0.1430 hc         1 9NJ       0.046700
     73 H5          10.7370    17.9830     1.7680 hc         1 9NJ       0.046700
@<TRIPOS>BOND
     1     1     3 1   
     2     1    19 2   
     3     2     6 ar  
     4     2     8 ar  
     5     2    19 1   
     6     3     5 ar  
     7     3    20 ar  
     8     4     7 1   
     9     4    30 1   
    10     4    70 2   
    11     5    23 ar  
    12     5    24 1   
    13     6    16 1   
    14     6    18 ar  
    15     7    10 1   
    16     7    24 1   
    17     7    38 1   
    18     8    13 ar  
    19     8    39 1   
    20     9    13 ar  
    21     9    15 1   
    22     9    18 ar  
    23    10    25 1   
    24    10    29 1   
    25    10    40 1   
    26    11    20 ar  
    27    11    21 1   
    28    11    22 ar  
    29    12    33 1   
    30    12    34 1   
    31    12    72 1   
    32    12    73 1   
    33    13    41 1   
    34    14    30 1   
    35    14    31 1   
    36    14    34 1   
    37    14    42 1   
    38    15    71 1   
    39    16    17 1   
    40    17    46 1   
    41    17    47 1   
    42    17    48 1   
    43    19    24 1   
    44    20    49 1   
    45    22    23 ar  
    46    22    50 1   
    47    23    51 1   
    48    25    26 1   
    49    25    52 1   
    50    25    53 1   
    51    26    27 1   
    52    26    54 1   
    53    26    55 1   
    54    27    28 1   
    55    27    56 1   
    56    27    57 1   
    57    28    29 1   
    58    28    58 1   
    59    28    59 1   
    60    29    60 1   
    61    29    61 1   
    62    30    62 1   
    63    31    32 1   
    64    31    63 1   
    65    31    64 1   
    66    32    33 1   
    67    32    65 1   
    68    32    66 1   
    69    33    35 1   
    70    33    67 1   
    71    34    68 1   
    72    34    69 1   
    73    35    36 1   
    74    35    37 1   
    75    43    71 1   
    76    44    71 1   
    77    45    71 1   
@<TRIPOS>SUBSTRUCTURE
     1 9NJ         1 TEMP              0 ****  ****    0 ROOT
