@<TRIPOS>MOLECULE
9NK
   41    42     1     0     0
SMALL
abcg2


@<TRIPOS>ATOM
      1 C10         -3.1960     0.1310     1.1330 ca         1 9NK      -0.097000
      2 C11          3.7990    -0.0100     2.0290 c6         1 9NK      -0.077400
      3 C12          2.9100     1.2180     1.9760 c6         1 9NK      -0.078400
      4 C13          1.5170     0.8470     1.5070 c6         1 9NK       0.103000
      5 C14          2.4840    -0.9770     0.0650 c6         1 9NK      -0.039300
      6 C15          3.8570    -0.6010     0.6330 c6         1 9NK      -0.077400
      7 C16          2.7250    -1.2910    -1.4350 c          1 9NK       0.737000
      8 C01         -2.7200    -0.2640    -0.1180 ca         1 9NK      -0.063300
      9 C02         -2.0010     0.7260    -0.9940 c3         1 9NK      -0.022100
     10 C03         -0.6380     1.1380    -0.4310 c3         1 9NK      -0.127700
     11 C04          0.0070     2.2820    -1.2200 c3         1 9NK       0.110600
     12 C05          0.3510    -0.0310    -0.4550 c          1 9NK       0.598100
     13 C06         -2.9340    -1.5790    -0.5210 ca         1 9NK      -0.097000
     14 C07         -3.6070    -2.4750     0.2990 ca         1 9NK      -0.119000
     15 C08         -4.0720    -2.0720     1.5440 ca         1 9NK      -0.124000
     16 C09         -3.8630    -0.7620     1.9590 ca         1 9NK      -0.119000
     17 N01          1.5040     0.0930     0.2530 n          1 9NK      -0.366800
     18 O01          0.1280    -0.9990    -1.1640 o          1 9NK      -0.562100
     19 S01         -0.9970     3.7990    -1.0690 sh         1 9NK      -0.523800
     20 H1          -3.0500     1.1540     1.4630 ha         1 9NK       0.118500
     21 H2           4.8030     0.2480     2.3740 hc         1 9NK       0.024200
     22 H3           3.3930    -0.7370     2.7390 hc         1 9NK       0.024200
     23 H4           2.8190     1.6930     2.9550 hc         1 9NK       0.032700
     24 H5           3.3450     1.9590     1.2990 hc         1 9NK       0.032700
     25 H6           1.0280     0.2600     2.2940 h1         1 9NK       0.019700
     26 H7           0.9440     1.7640     1.3970 h1         1 9NK       0.019700
     27 H8           2.1370    -1.8850     0.5760 h1         1 9NK       0.033700
     28 H9           4.3240     0.1300    -0.0330 hc         1 9NK       0.052700
     29 H10          4.4790    -1.4980     0.6070 hc         1 9NK       0.052700
     30 H11         -1.8890     0.3340    -2.0050 hc         1 9NK       0.059700
     31 H12         -2.6180     1.6250    -1.0780 hc         1 9NK       0.059700
     32 H13         -0.8000     1.4800     0.5940 hc         1 9NK       0.056700
     33 H14          1.0050     2.4890    -0.8370 h1         1 9NK       0.085700
     34 H15          0.1030     2.0050    -2.2710 h1         1 9NK       0.085700
     35 H16         -2.5680    -1.9040    -1.4860 ha         1 9NK       0.118500
     36 H17         -3.7670    -3.4930    -0.0340 ha         1 9NK       0.101500
     37 H18         -4.5950    -2.7700     2.1840 ha         1 9NK       0.098000
     38 H19         -4.2250    -0.4350     2.9250 ha         1 9NK       0.101500
     39 H21         -0.1750     4.6080    -1.7440 hs         1 9NK       0.212800
     40 O02          2.9360    -2.4870    -1.7110 o          1 9NK      -0.722500
     41 O03          2.7940    -0.3180    -2.2070 o          1 9NK      -0.722500
@<TRIPOS>BOND
     1     1     8 ar  
     2     1    16 ar  
     3     1    20 1   
     4     2     3 1   
     5     2     6 1   
     6     2    21 1   
     7     2    22 1   
     8     3     4 1   
     9     3    23 1   
    10     3    24 1   
    11     4    17 1   
    12     4    25 1   
    13     4    26 1   
    14     5     6 1   
    15     5     7 1   
    16     5    17 1   
    17     5    27 1   
    18     6    28 1   
    19     6    29 1   
    20     7    40 1   
    21     7    41 1   
    22     8     9 1   
    23     8    13 ar  
    24     9    10 1   
    25     9    30 1   
    26     9    31 1   
    27    10    11 1   
    28    10    12 1   
    29    10    32 1   
    30    11    19 1   
    31    11    33 1   
    32    11    34 1   
    33    12    17 1   
    34    12    18 2   
    35    13    14 ar  
    36    13    35 1   
    37    14    15 ar  
    38    14    36 1   
    39    15    16 ar  
    40    15    37 1   
    41    16    38 1   
    42    19    39 1   
@<TRIPOS>SUBSTRUCTURE
     1 9NK         1 TEMP              0 ****  ****    0 ROOT
