@<TRIPOS>MOLECULE
9NK
   41    42     1     0     0
SMALL
No Charge or Current Charge


@<TRIPOS>ATOM
      1 C10         -2.6840     0.6640     1.4450 ca         1 9NK      -0.097000
      2 C11          2.9400    -1.0000     2.2620 c6         1 9NK      -0.077400
      3 C12          1.8510     0.0560     2.4870 c6         1 9NK      -0.078400
      4 C13          0.7930     0.0030     1.3650 c6         1 9NK       0.103000
      5 C14          2.5740    -0.7740    -0.2720 c6         1 9NK      -0.039300
      6 C15          3.5990    -0.7480     0.8980 c6         1 9NK      -0.077400
      7 C16          3.3510    -0.4630    -1.6010 c          1 9NK       0.737000
      8 C01         -2.3640     0.0650     0.2110 ca         1 9NK      -0.063300
      9 C02         -2.0570     0.9320    -1.0030 c3         1 9NK      -0.022100
     10 C03         -0.5850     1.4300    -1.0220 c3         1 9NK      -0.127700
     11 C04         -0.2970     2.3820    -2.2040 c3         1 9NK       0.110600
     12 C05          0.4020     0.2420    -1.0890 c          1 9NK       0.598100
     13 C06         -2.3120    -1.3390     0.1160 ca         1 9NK      -0.097000
     14 C07         -2.5700    -2.1360     1.2450 ca         1 9NK      -0.119000
     15 C08         -2.8830    -1.5330     2.4750 ca         1 9NK      -0.124000
     16 C09         -2.9410    -0.1330     2.5740 ca         1 9NK      -0.119000
     17 N01          1.3310     0.0640    -0.0300 n          1 9NK      -0.366800
     18 O01          0.4070    -0.4930    -2.0700 o          1 9NK      -0.562100
     19 S01         -1.2180     3.9950    -2.1180 sh         1 9NK      -0.523800
     20 H1          -2.7240     1.7480     1.5320 ha         1 9NK       0.118500
     21 H2           3.6910    -0.9450     3.0620 hc         1 9NK       0.024200
     22 H3           2.5060    -2.0090     2.2950 hc         1 9NK       0.024200
     23 H4           1.3670    -0.1030     3.4590 hc         1 9NK       0.032700
     24 H5           2.3010     1.0580     2.5200 hc         1 9NK       0.032700
     25 H6           0.2260    -0.9340     1.4670 h1         1 9NK       0.019700
     26 H7           0.0860     0.8200     1.5430 h1         1 9NK       0.019700
     27 H8           2.2290    -1.8140    -0.3640 h1         1 9NK       0.033700
     28 H9           4.1090     0.2260     0.9160 hc         1 9NK       0.052700
     29 H10          4.3810    -1.4990     0.7220 hc         1 9NK       0.052700
     30 H11         -2.2680     0.3810    -1.9280 hc         1 9NK       0.059700
     31 H12         -2.7350     1.7940    -1.0090 hc         1 9NK       0.059700
     32 H13         -0.4030     2.0020    -0.1080 hc         1 9NK       0.056700
     33 H14          0.7780     2.6090    -2.2260 h1         1 9NK       0.085700
     34 H15         -0.5470     1.8830    -3.1510 h1         1 9NK       0.085700
     35 H16         -2.0630    -1.8150    -0.8300 ha         1 9NK       0.118500
     36 H17         -2.5240    -3.2200     1.1670 ha         1 9NK       0.101500
     37 H18         -3.0810    -2.1500     3.3480 ha         1 9NK       0.098000
     38 H19         -3.1830     0.3350     3.5260 ha         1 9NK       0.101500
     39 H21         -0.7110     4.5160    -3.2630 hs         1 9NK       0.212800
     40 O02          3.5410    -1.4010    -2.3640 o          1 9NK      -0.722500
     41 O03          3.3670     0.6980    -1.9910 o          1 9NK      -0.722500
@<TRIPOS>BOND
     1     1     8 ar  
     2     1    16 ar  
     3     1    20 1   
     4     2     3 1   
     5     2     6 1   
     6     2    21 1   
     7     2    22 1   
     8     3     4 1   
     9     3    23 1   
    10     3    24 1   
    11     4    17 1   
    12     4    25 1   
    13     4    26 1   
    14     5     6 1   
    15     5     7 1   
    16     5    17 1   
    17     5    27 1   
    18     6    28 1   
    19     6    29 1   
    20     7    40 1   
    21     7    41 1   
    22     8     9 1   
    23     8    13 ar  
    24     9    10 1   
    25     9    30 1   
    26     9    31 1   
    27    10    11 1   
    28    10    12 1   
    29    10    32 1   
    30    11    19 1   
    31    11    33 1   
    32    11    34 1   
    33    12    17 1   
    34    12    18 2   
    35    13    14 ar  
    36    13    35 1   
    37    14    15 ar  
    38    14    36 1   
    39    15    16 ar  
    40    15    37 1   
    41    16    38 1   
    42    19    39 1   
@<TRIPOS>SUBSTRUCTURE
     1 9NK         1 TEMP              0 ****  ****    0 ROOT
