@<TRIPOS>MOLECULE
9NL
   21    21     1     0     0
SMALL
bcc


@<TRIPOS>ATOM
      1 OAM         -3.2320    -0.9020    -0.1120 o          1 9NL      -0.803300
      2 CAI         -2.6770     0.1870    -0.2860 c          1 9NL       0.914600
      3 OAN         -3.1700     1.3330    -0.1940 o          1 9NL      -0.803300
      4 CAH         -1.1730     0.1900    -0.6880 c3         1 9NL      -0.047900
      5 OAJ         -0.7710     1.4980    -0.9610 oh         1 9NL      -0.633800
      6 CAG         -0.2900    -0.3860     0.4210 c3         1 9NL       0.461900
      7 FAK         -0.6420     0.1860     1.6140 f          1 9NL      -0.241300
      8 FAL         -0.5400    -1.7200     0.5630 f          1 9NL      -0.241300
      9 CAE          1.1810    -0.1830     0.1820 ca         1 9NL      -0.114300
     10 CAD          1.8520     0.9050     0.7290 ca         1 9NL      -0.090500
     11 CAC          3.2040     1.0900     0.4740 ca         1 9NL      -0.147000
     12 CAB          3.8930     0.1970    -0.3360 ca         1 9NL      -0.137000
     13 CAA          3.2220    -0.8840    -0.8910 ca         1 9NL      -0.147000
     14 CAF          1.8720    -1.0750    -0.6330 ca         1 9NL      -0.090500
     15 H2          -1.0390    -0.4530    -1.5700 h1         1 9NL       0.049700
     16 H3          -1.5620     2.0090    -0.6940 ho         1 9NL       0.443000
     17 H4           1.3320     1.6150     1.3570 ha         1 9NL       0.142500
     18 H5           3.7190     1.9360     0.9090 ha         1 9NL       0.115500
     19 H6           4.9460     0.3450    -0.5350 ha         1 9NL       0.112000
     20 H7           3.7510    -1.5850    -1.5240 ha         1 9NL       0.115500
     21 H8           1.3650    -1.9230    -1.0740 ha         1 9NL       0.142500
@<TRIPOS>BOND
     1     1     2 1   
     2     2     3 1   
     3     2     4 1   
     4     4     5 1   
     5     4     6 1   
     6     4    15 1   
     7     5    16 1   
     8     6     7 1   
     9     6     8 1   
    10     6     9 1   
    11     9    10 ar  
    12     9    14 ar  
    13    10    11 ar  
    14    10    17 1   
    15    11    12 ar  
    16    11    18 1   
    17    12    13 ar  
    18    12    19 1   
    19    13    14 ar  
    20    13    20 1   
    21    14    21 1   
@<TRIPOS>SUBSTRUCTURE
     1 9NL         1 TEMP              0 ****  ****    0 ROOT
