@<TRIPOS>MOLECULE
9NL
   21    21     1     0     0
SMALL
No Charge or Current Charge


@<TRIPOS>ATOM
      1 OAM         -3.1800    -1.1080    -0.8210 o          1 9NL      -0.698000
      2 CAI         -2.7000    -0.0690    -0.3900 c          1 9NL       0.704000
      3 OAN         -3.3750     0.8400     0.0790 o          1 9NL      -0.698000
      4 CAH         -1.1880     0.2260    -0.6720 c3         1 9NL      -0.024700
      5 OAJ         -0.9610     1.6290    -1.0200 oh         1 9NL      -0.696000
      6 CAG         -0.3090    -0.2090     0.5420 c3         1 9NL       0.219300
      7 FAK         -0.6560     0.5240     1.6280 f          1 9NL      -0.120000
      8 FAL         -0.6080    -1.4910     0.8600 f          1 9NL      -0.120000
      9 CAE          1.1920    -0.0870     0.2300 ca         1 9NL      -0.114300
     10 CAD          1.9730     0.9640     0.7640 ca         1 9NL      -0.072500
     11 CAC          3.3440     1.0570     0.4660 ca         1 9NL      -0.129000
     12 CAB          3.9510     0.1060    -0.3690 ca         1 9NL      -0.119000
     13 CAA          3.1850    -0.9380    -0.9100 ca         1 9NL      -0.129000
     14 CAF          1.8140    -1.0340    -0.6140 ca         1 9NL      -0.072500
     15 H2          -0.9030    -0.4040    -1.5240 h1         1 9NL       0.049700
     16 H3          -1.6920     2.1320    -0.5850 ho         1 9NL       0.482000
     17 H4           1.5220     1.7160     1.4080 ha         1 9NL       0.124500
     18 H5           3.9350     1.8690     0.8830 ha         1 9NL       0.097500
     19 H6           5.0120     0.1800    -0.5990 ha         1 9NL       0.094000
     20 H7           3.6520    -1.6750    -1.5600 ha         1 9NL       0.097500
     21 H8           1.2330    -1.8480    -1.0420 ha         1 9NL       0.124500
@<TRIPOS>BOND
     1     1     2 1   
     2     2     3 1   
     3     2     4 1   
     4     4     5 1   
     5     4     6 1   
     6     4    15 1   
     7     5    16 1   
     8     6     7 1   
     9     6     8 1   
    10     6     9 1   
    11     9    10 ar  
    12     9    14 ar  
    13    10    11 ar  
    14    10    17 1   
    15    11    12 ar  
    16    11    18 1   
    17    12    13 ar  
    18    12    19 1   
    19    13    14 ar  
    20    13    20 1   
    21    14    21 1   
@<TRIPOS>SUBSTRUCTURE
     1 9NL         1 TEMP              0 ****  ****    0 ROOT
