@<TRIPOS>MOLECULE
9NM
   56    58     1     0     0
SMALL
No Charge or Current Charge


@<TRIPOS>ATOM
      1 C4          13.1710    62.6550    17.8620 c6         1 9NM      -0.087900
      2 C5          12.1060    63.8940    15.2250 c          1 9NM       0.660100
      3 C6           9.9810    63.0340    16.2110 c          1 9NM       0.607300
      4 C7          13.4160    59.7920    16.9800 c6         1 9NM      -0.070900
      5 C8          13.8190    61.5790    18.7700 c6         1 9NM      -0.070900
      6 C13         14.4550    60.4410    17.9300 c6         1 9NM      -0.077400
      7 C15          7.7860    63.7350    15.1640 ce         1 9NM      -0.088200
      8 C17         11.1460    67.4130    14.2200 c6         1 9NM      -0.091900
      9 C20          9.7410    67.2550    13.5750 c6         1 9NM      -0.074400
     10 C21          5.6270    64.7750    14.4350 ca         1 9NM      -0.064500
     11 C22          7.1780    64.0120    12.7210 ca         1 9NM      -0.064500
     12 C24          4.7410    65.2150    13.4360 ca         1 9NM      -0.151000
     13 C26          5.0760    65.0560    12.0840 ca         1 9NM       0.176000
     14 F27          4.2250    65.4800    11.1250 f          1 9NM      -0.179000
     15 C18          6.8550    64.1750    14.0860 ca         1 9NM      -0.090800
     16 C11          9.1180    63.4490    15.0660 cf         1 9NM      -0.289200
     17 O12          9.4540    62.6970    17.2630 o          1 9NM      -0.580100
     18 N2          11.3850    63.0040    16.0540 n          1 9NM      -0.410400
     19 C1          12.1490    62.0100    16.8830 c6         1 9NM       0.118700
     20 C3          12.7620    60.8480    16.0530 c6         1 9NM      -0.087900
     21 O10         13.2700    63.7130    14.9060 o          1 9NM      -0.601100
     22 N9          11.4520    65.0410    14.8380 ns         1 9NM      -0.509900
     23 C14         12.0200    66.1420    14.0480 c6         1 9NM       0.132700
     24 C16         12.1180    65.7840    12.5380 c6         1 9NM      -0.091900
     25 C19         10.7290    65.6310    11.8640 c6         1 9NM      -0.074400
     26 C23          9.8540    66.8900    12.0750 c6         1 9NM      -0.075400
     27 C25          6.2900    64.4540    11.7230 ca         1 9NM      -0.151000
     28 H1          13.9620    63.1800    17.3120 hc         1 9NM       0.053450
     29 H2          12.6680    63.4080    18.4830 hc         1 9NM       0.053450
     30 H3          12.6400    59.2870    17.5720 hc         1 9NM       0.040700
     31 H4          13.9000    59.0130    16.3740 hc         1 9NM       0.040700
     32 H5          14.5840    62.0420    19.4080 hc         1 9NM       0.040700
     33 H6          13.0620    61.1590    19.4470 hc         1 9NM       0.040700
     34 H7          14.8760    59.6780    18.5970 hc         1 9NM       0.041700
     35 H8          15.2940    60.8390    17.3430 hc         1 9NM       0.041700
     36 H9           7.3230    63.6750    16.1520 ha         1 9NM       0.191000
     37 H10         11.6600    68.2700    13.7630 hc         1 9NM       0.054200
     38 H11         11.0420    67.6550    15.2860 hc         1 9NM       0.054200
     39 H12          9.1750    68.1900    13.6860 hc         1 9NM       0.040200
     40 H13          9.1640    66.4830    14.1030 hc         1 9NM       0.040200
     41 H15          8.1070    63.5360    12.4220 ha         1 9NM       0.121500
     42 H16          3.7970    65.6810    13.7080 ha         1 9NM       0.136500
     43 H17          9.5970    63.5070    14.0940 ha         1 9NM       0.198000
     44 H18         11.4320    61.5030    17.5430 h1         1 9NM       0.077700
     45 H19         11.9810    60.3720    15.4450 hc         1 9NM       0.053450
     46 H20         13.5180    61.2240    15.3520 hc         1 9NM       0.053450
     47 H21         10.5080    65.1560    15.1790 hn         1 9NM       0.319500
     48 H22         13.0290    66.3510    14.4340 h1         1 9NM       0.062700
     49 H23         12.6980    64.8610    12.4070 hc         1 9NM       0.054200
     50 H24         12.6840    66.5710    12.0200 hc         1 9NM       0.054200
     51 H25         10.2150    64.7490    12.2650 hc         1 9NM       0.040200
     52 H26         10.8570    65.4460    10.7890 hc         1 9NM       0.040200
     53 H27         10.2880    67.7360    11.5230 hc         1 9NM       0.042700
     54 H28          8.8530    66.7240    11.6550 hc         1 9NM       0.042700
     55 H29          6.5420    64.3290    10.6730 ha         1 9NM       0.136500
     56 H14          5.3610    64.9090    15.4810 ha         1 9NM       0.121500
@<TRIPOS>BOND
     1     1     5 1   
     2     1    19 1   
     3     1    28 1   
     4     1    29 1   
     5     2    18 1   
     6     2    21 2   
     7     2    22 1   
     8     3    16 1   
     9     3    17 2   
    10     3    18 1   
    11     4     6 1   
    12     4    20 1   
    13     4    30 1   
    14     4    31 1   
    15     5     6 1   
    16     5    32 1   
    17     5    33 1   
    18     6    34 1   
    19     6    35 1   
    20     7    15 1   
    21     7    16 2   
    22     7    36 1   
    23     8     9 1   
    24     8    23 1   
    25     8    37 1   
    26     8    38 1   
    27     9    26 1   
    28     9    39 1   
    29     9    40 1   
    30    10    12 ar  
    31    10    15 ar  
    32    10    56 1   
    33    11    15 ar  
    34    11    27 ar  
    35    11    41 1   
    36    12    13 ar  
    37    12    42 1   
    38    13    14 1   
    39    13    27 ar  
    40    16    43 1   
    41    18    19 1   
    42    19    20 1   
    43    19    44 1   
    44    20    45 1   
    45    20    46 1   
    46    22    23 1   
    47    22    47 1   
    48    23    24 1   
    49    23    48 1   
    50    24    25 1   
    51    24    49 1   
    52    24    50 1   
    53    25    26 1   
    54    25    51 1   
    55    25    52 1   
    56    26    53 1   
    57    26    54 1   
    58    27    55 1   
@<TRIPOS>SUBSTRUCTURE
     1 9NM         1 TEMP              0 ****  ****    0 ROOT
