@<TRIPOS>MOLECULE
9NM
   56    58     1     0     0
SMALL
abcg2


@<TRIPOS>ATOM
      1 C4          13.1650    62.8470    17.5020 c6         1 9NM      -0.087900
      2 C5          11.9180    63.6060    14.9910 c          1 9NM       0.660100
      3 C6           9.8870    62.5300    15.9160 c          1 9NM       0.607300
      4 C7          13.4630    59.9080    17.3190 c6         1 9NM      -0.070900
      5 C8          13.9380    62.0540    18.5580 c6         1 9NM      -0.070900
      6 C13         14.5410    60.7770    17.9690 c6         1 9NM      -0.077400
      7 C15          7.8860    63.5310    14.9040 ce         1 9NM      -0.088200
      8 C17         11.1610    67.2090    14.4900 c6         1 9NM      -0.091900
      9 C20          9.6930    67.2160    14.0500 c6         1 9NM      -0.074400
     10 C21          6.0620    65.0240    14.1910 ca         1 9NM      -0.064500
     11 C22          7.2700    63.8260    12.4870 ca         1 9NM      -0.064500
     12 C24          5.3110    65.6730    13.2200 ca         1 9NM      -0.151000
     13 C26          5.5670    65.3800    11.8930 ca         1 9NM       0.176000
     14 F27          4.8480    66.0120    10.9340 f          1 9NM      -0.179000
     15 C18          7.0650    64.1100    13.8440 ca         1 9NM      -0.090800
     16 C11          9.1220    63.0430    14.7580 cf         1 9NM      -0.289200
     17 O12          9.3350    61.9380    16.8420 o          1 9NM      -0.580100
     18 N2          11.2570    62.7060    15.8860 n          1 9NM      -0.410400
     19 C1          12.0920    61.9660    16.8620 c6         1 9NM       0.118700
     20 C3          12.6820    60.6890    16.2590 c6         1 9NM      -0.087900
     21 O10         12.9380    63.2780    14.3980 o          1 9NM      -0.601100
     22 N9          11.3640    64.8260    14.9190 ns         1 9NM      -0.509900
     23 C14         11.8850    65.9200    14.0920 c6         1 9NM       0.132700
     24 C16         11.7300    65.6550    12.5880 c6         1 9NM      -0.091900
     25 C19         10.2720    65.6800    12.1310 c6         1 9NM      -0.074400
     26 C23          9.5620    66.9700    12.5460 c6         1 9NM      -0.075400
     27 C25          6.5260    64.4580    11.5040 ca         1 9NM      -0.151000
     28 H1          13.8600    63.2010    16.7370 hc         1 9NM       0.053450
     29 H2          12.6950    63.7260    17.9510 hc         1 9NM       0.053450
     30 H3          12.7710    59.5550    18.0920 hc         1 9NM       0.040700
     31 H4          13.9100    59.0190    16.8670 hc         1 9NM       0.040700
     32 H5          14.7230    62.6830    18.9850 hc         1 9NM       0.040700
     33 H6          13.2630    61.7890    19.3790 hc         1 9NM       0.040700
     34 H7          15.0630    60.2140    18.7460 hc         1 9NM       0.041700
     35 H8          15.2880    61.0480    17.2140 hc         1 9NM       0.041700
     36 H9           7.4680    63.5750    15.9050 ha         1 9NM       0.191000
     37 H10         11.6850    68.0410    14.0120 hc         1 9NM       0.054200
     38 H11         11.2430    67.3580    15.5700 hc         1 9NM       0.054200
     39 H12          9.2380    68.1720    14.3210 hc         1 9NM       0.040200
     40 H13          9.1330    66.4460    14.5900 hc         1 9NM       0.040200
     41 H15          8.0160    63.1000    12.1930 ha         1 9NM       0.121500
     42 H16          4.5460    66.3910    13.4800 ha         1 9NM       0.136500
     43 H17          9.6190    63.0450    13.7970 ha         1 9NM       0.198000
     44 H18         11.3920    61.6780    17.6440 h1         1 9NM       0.077700
     45 H19         11.8730    60.0780    15.8490 hc         1 9NM       0.053450
     46 H20         13.3420    60.9560    15.4320 hc         1 9NM       0.053450
     47 H21         10.6010    65.0330    15.5420 hn         1 9NM       0.319500
     48 H22         12.9490    66.0170    14.3200 h1         1 9NM       0.062700
     49 H23         12.1960    64.7030    12.3340 hc         1 9NM       0.054200
     50 H24         12.2920    66.4370    12.0670 hc         1 9NM       0.054200
     51 H25          9.7440    64.8310    12.5660 hc         1 9NM       0.040200
     52 H26         10.2230    65.5520    11.0470 hc         1 9NM       0.040200
     53 H27         10.0000    67.8150    12.0040 hc         1 9NM       0.042700
     54 H28          8.5070    66.9230    12.2630 hc         1 9NM       0.042700
     55 H29          6.6790    64.2460    10.4550 ha         1 9NM       0.136500
     56 H14          5.8830    65.2440    15.2360 ha         1 9NM       0.121500
@<TRIPOS>BOND
     1     1     5 1   
     2     1    19 1   
     3     1    28 1   
     4     1    29 1   
     5     2    18 1   
     6     2    21 2   
     7     2    22 1   
     8     3    16 1   
     9     3    17 2   
    10     3    18 1   
    11     4     6 1   
    12     4    20 1   
    13     4    30 1   
    14     4    31 1   
    15     5     6 1   
    16     5    32 1   
    17     5    33 1   
    18     6    34 1   
    19     6    35 1   
    20     7    15 1   
    21     7    16 2   
    22     7    36 1   
    23     8     9 1   
    24     8    23 1   
    25     8    37 1   
    26     8    38 1   
    27     9    26 1   
    28     9    39 1   
    29     9    40 1   
    30    10    12 ar  
    31    10    15 ar  
    32    10    56 1   
    33    11    15 ar  
    34    11    27 ar  
    35    11    41 1   
    36    12    13 ar  
    37    12    42 1   
    38    13    14 1   
    39    13    27 ar  
    40    16    43 1   
    41    18    19 1   
    42    19    20 1   
    43    19    44 1   
    44    20    45 1   
    45    20    46 1   
    46    22    23 1   
    47    22    47 1   
    48    23    24 1   
    49    23    48 1   
    50    24    25 1   
    51    24    49 1   
    52    24    50 1   
    53    25    26 1   
    54    25    51 1   
    55    25    52 1   
    56    26    53 1   
    57    26    54 1   
    58    27    55 1   
@<TRIPOS>SUBSTRUCTURE
     1 9NM         1 TEMP              0 ****  ****    0 ROOT
