@<TRIPOS>MOLECULE
9NN
   18    18     1     0     0
SMALL
No Charge or Current Charge


@<TRIPOS>ATOM
      1 C02        -34.3640   -14.3730   -23.4380 c3         1 9NN       0.191100
      2 C03        -34.6830   -14.8170   -22.0140 ca         1 9NN      -0.011300
      3 C04        -33.6620   -15.1240   -21.0960 ca         1 9NN      -0.192000
      4 C05        -34.0020   -15.5280   -19.7930 ca         1 9NN       0.372900
      5 C07        -36.2300   -15.3500   -20.2460 ca         1 9NN       0.589900
      6 C08        -36.0090   -14.9360   -21.5620 ca         1 9NN      -0.232000
      7 N01        -34.1230   -12.9180   -23.5200 n8         1 9NN      -0.997200
      8 N06        -35.2810   -15.6410   -19.3660 nb         1 9NN      -0.741000
      9 N09        -37.4450   -15.4910   -19.7110 nv         1 9NN      -1.055900
     10 H1         -35.2020   -14.6320   -24.1010 h1         1 9NN       0.037700
     11 H2         -33.4700   -14.9020   -23.7980 h1         1 9NN       0.037700
     12 H3         -32.6170   -15.0480   -21.3810 ha         1 9NN       0.139000
     13 H4         -33.2260   -15.7680   -19.0670 h4         1 9NN       0.015100
     14 H5         -36.8450   -14.7150   -22.2180 ha         1 9NN       0.115000
     15 H6         -34.0000   -12.6560   -24.5050 hn         1 9NN       0.397500
     16 H7         -34.9820   -12.4270   -23.2430 hn         1 9NN       0.397500
     17 H9         -37.4610   -15.5610   -18.7010 hn         1 9NN       0.467500
     18 H10        -38.2120   -14.9900   -20.1450 hn         1 9NN       0.467500
@<TRIPOS>BOND
     1     1     2 1   
     2     1     7 1   
     3     1    10 1   
     4     1    11 1   
     5     2     3 ar  
     6     2     6 ar  
     7     3     4 ar  
     8     3    12 1   
     9     4     8 ar  
    10     4    13 1   
    11     5     6 ar  
    12     5     8 ar  
    13     5     9 1   
    14     6    14 1   
    15     7    15 1   
    16     7    16 1   
    17     9    17 1   
    18     9    18 1   
@<TRIPOS>SUBSTRUCTURE
     1 9NN         1 TEMP              0 ****  ****    0 ROOT
