@<TRIPOS>MOLECULE
9NN
   18    18     1     0     0
SMALL
bcc


@<TRIPOS>ATOM
      1 C02        -34.6210   -14.2790   -23.4260 c3         1 9NN       0.191100
      2 C03        -34.8190   -14.7070   -21.9950 ca         1 9NN      -0.011300
      3 C04        -33.7380   -14.8290   -21.1140 ca         1 9NN      -0.275300
      4 C05        -33.9960   -15.2550   -19.8280 ca         1 9NN       0.438200
      5 C07        -36.2350   -15.4500   -20.1960 ca         1 9NN       0.655200
      6 C08        -36.0780   -15.0180   -21.5250 ca         1 9NN      -0.315300
      7 N01        -33.6430   -13.2120   -23.5450 n8         1 9NN      -0.886800
      8 N06        -35.2050   -15.5600   -19.3620 nb         1 9NN      -0.741000
      9 N09        -37.4630   -15.8140   -19.7220 nv         1 9NN      -0.945500
     10 H1         -35.6000   -14.0420   -23.8620 h1         1 9NN       0.037700
     11 H2         -34.2450   -15.1420   -23.9850 h1         1 9NN       0.037700
     12 H3         -32.7310   -14.5910   -21.4240 ha         1 9NN       0.157000
     13 H4         -33.1790   -15.3560   -19.1200 h4         1 9NN       0.015100
     14 H5         -36.9460   -14.9280   -22.1680 ha         1 9NN       0.133000
     15 H6         -33.4480   -13.0450   -24.5230 hn         1 9NN       0.342300
     16 H7         -34.0340   -12.3510   -23.1840 hn         1 9NN       0.342300
     17 H9         -37.5620   -15.8370   -18.7200 hn         1 9NN       0.412300
     18 H10        -38.2720   -15.4600   -20.2050 hn         1 9NN       0.412300
@<TRIPOS>BOND
     1     1     2 1   
     2     1     7 1   
     3     1    10 1   
     4     1    11 1   
     5     2     3 ar  
     6     2     6 ar  
     7     3     4 ar  
     8     3    12 1   
     9     4     8 ar  
    10     4    13 1   
    11     5     6 ar  
    12     5     8 ar  
    13     5     9 1   
    14     6    14 1   
    15     7    15 1   
    16     7    16 1   
    17     9    17 1   
    18     9    18 1   
@<TRIPOS>SUBSTRUCTURE
     1 9NN         1 TEMP              0 ****  ****    0 ROOT
