@<TRIPOS>MOLECULE
9NO
   22    22     1     0     0
SMALL
bcc


@<TRIPOS>ATOM
      1 OAA         -3.1100    -1.1820    -0.1540 o          1 9NO      -0.795300
      2 CAL         -2.6180    -0.0960     0.1920 c          1 9NO       0.900600
      3 OAB         -3.1650     1.0130     0.3070 o          1 9NO      -0.795300
      4 CAN         -1.1060    -0.1440     0.5900 c3         1 9NO       0.159600
      5 OAC         -0.8410     0.8180     1.5520 oh         1 9NO      -0.612800
      6 OAD         -0.7890    -1.4020     1.0760 oh         1 9NO      -0.612800
      7 CAO         -0.1990     0.1390    -0.6270 c3         1 9NO       0.442900
      8 FAE         -0.4970    -0.7600    -1.6110 f          1 9NO      -0.241800
      9 FAF         -0.5250     1.3620    -1.1400 f          1 9NO      -0.241800
     10 CAM          1.2690     0.0890    -0.3210 ca         1 9NO      -0.108300
     11 CAJ          1.9370     1.2330     0.1040 ca         1 9NO      -0.083000
     12 CAH          3.2900     1.1790     0.4080 ca         1 9NO      -0.150000
     13 CAG          3.9840    -0.0180     0.2950 ca         1 9NO      -0.136000
     14 CAI          3.3180    -1.1620    -0.1220 ca         1 9NO      -0.150000
     15 CAK          1.9660    -1.1120    -0.4270 ca         1 9NO      -0.083000
     16 H2          -1.5930     1.4290     1.5170 ho         1 9NO       0.440000
     17 H3          -1.5080    -1.9800     0.7720 ho         1 9NO       0.440000
     18 H4           1.4130     2.1740     0.1970 ha         1 9NO       0.144000
     19 H5           3.8010     2.0760     0.7330 ha         1 9NO       0.115000
     20 H6           5.0400    -0.0590     0.5300 ha         1 9NO       0.111000
     21 H7           3.8530    -2.0990    -0.2130 ha         1 9NO       0.115000
     22 H8           1.4650    -2.0130    -0.7510 ha         1 9NO       0.144000
@<TRIPOS>BOND
     1     1     2 1   
     2     2     3 1   
     3     2     4 1   
     4     4     5 1   
     5     4     6 1   
     6     4     7 1   
     7     5    16 1   
     8     6    17 1   
     9     7     8 1   
    10     7     9 1   
    11     7    10 1   
    12    10    11 ar  
    13    10    15 ar  
    14    11    12 ar  
    15    11    18 1   
    16    12    13 ar  
    17    12    19 1   
    18    13    14 ar  
    19    13    20 1   
    20    14    15 ar  
    21    14    21 1   
    22    15    22 1   
@<TRIPOS>SUBSTRUCTURE
     1 9NO         1 TEMP              0 ****  ****    0 ROOT
