@<TRIPOS>MOLECULE
9NO
   22    22     1     0     0
SMALL
No Charge or Current Charge


@<TRIPOS>ATOM
      1 OAA         -3.2360    -1.1060    -0.2120 o          1 9NO      -0.690000
      2 CAL         -2.6620    -0.0550     0.0520 c          1 9NO       0.690000
      3 OAB         -3.2670     0.9930     0.2500 o          1 9NO      -0.690000
      4 CAN         -1.1330    -0.1380     0.5280 c3         1 9NO       0.206000
      5 OAC         -0.8880     0.7950     1.5990 oh         1 9NO      -0.675000
      6 OAD         -0.8550    -1.4290     1.1040 oh         1 9NO      -0.675000
      7 CAO         -0.1900     0.1500    -0.7050 c3         1 9NO       0.200300
      8 FAE         -0.4750    -0.7370    -1.6910 f          1 9NO      -0.120500
      9 FAF         -0.5060     1.3630    -1.2240 f          1 9NO      -0.120500
     10 CAM          1.3100     0.0930    -0.3500 ca         1 9NO      -0.108300
     11 CAJ          1.9940     1.2530     0.0790 ca         1 9NO      -0.065000
     12 CAH          3.3630     1.2010     0.3940 ca         1 9NO      -0.132000
     13 CAG          4.0670    -0.0090     0.2860 ca         1 9NO      -0.118000
     14 CAI          3.3980    -1.1690    -0.1340 ca         1 9NO      -0.132000
     15 CAK          2.0280    -1.1200    -0.4490 ca         1 9NO      -0.065000
     16 H2          -1.7700     1.1800     1.8070 ho         1 9NO       0.479000
     17 H3          -1.7250    -1.8910     1.1220 ho         1 9NO       0.479000
     18 H4           1.4640     2.1980     0.1750 ha         1 9NO       0.126000
     19 H5           3.8780     2.1010     0.7230 ha         1 9NO       0.097000
     20 H6           5.1260    -0.0480     0.5300 ha         1 9NO       0.093000
     21 H7           3.9390    -2.1090    -0.2140 ha         1 9NO       0.097000
     22 H8           1.5250    -2.0310    -0.7650 ha         1 9NO       0.126000
@<TRIPOS>BOND
     1     1     2 1   
     2     2     3 1   
     3     2     4 1   
     4     4     5 1   
     5     4     6 1   
     6     4     7 1   
     7     5    16 1   
     8     6    17 1   
     9     7     8 1   
    10     7     9 1   
    11     7    10 1   
    12    10    11 ar  
    13    10    15 ar  
    14    11    12 ar  
    15    11    18 1   
    16    12    13 ar  
    17    12    19 1   
    18    13    14 ar  
    19    13    20 1   
    20    14    15 ar  
    21    14    21 1   
    22    15    22 1   
@<TRIPOS>SUBSTRUCTURE
     1 9NO         1 TEMP              0 ****  ****    0 ROOT
