@<TRIPOS>MOLECULE
9NP
   69    74     1     0     0
SMALL
abcg2


@<TRIPOS>ATOM
      1 N3          -1.1460    -3.0980     0.7630 nc         1 9NP      -0.551100
      2 C4          -1.1990     1.2600     1.0310 c          1 9NP       0.588100
      3 C8           4.2770    -1.4020    -2.4140 cc         1 9NP       0.453000
      4 C10         -2.7690    -1.5140     0.9930 ca         1 9NP      -0.054200
      5 C15          2.9780    -1.5440    -1.7710 ca         1 9NP      -0.134500
      6 C17          1.6880    -1.7460     0.2500 ca         1 9NP      -0.087000
      7 C20          2.9110    -1.6080    -0.3810 ca         1 9NP      -0.084500
      8 C21         -2.6500     0.9200    -1.0320 c6         1 9NP      -0.065700
      9 C22          0.5000     2.7380     2.0370 c6         1 9NP       0.107700
     10 C24         -3.2500    -3.6910     1.9700 ca         1 9NP      -0.052000
     11 C26         -2.3340     2.3450    -1.4930 c6         1 9NP      -0.074400
     12 C28          2.0150     2.6080     2.1630 c6         1 9NP      -0.089900
     13 O16         -2.0170     1.4090     1.9250 o          1 9NP      -0.583100
     14 N13          0.0180     1.8150     1.0240 ns         1 9NP      -0.497900
     15 C34          2.5660     3.5800     3.2010 c6         1 9NP      -0.071900
     16 C35          2.1630     5.0180     2.8870 c6         1 9NP      -0.077400
     17 C33          0.6480     5.1450     2.7600 c6         1 9NP      -0.071900
     18 C27          0.0950     4.1780     1.7180 c6         1 9NP      -0.089900
     19 C9          -1.5010     0.3750    -0.1780 c3         1 9NP       0.014300
     20 C31         -3.4360     2.8930    -2.3960 c6         1 9NP      -0.073400
     21 C36         -3.6880     1.9810    -3.5910 c6         1 9NP      -0.076400
     22 C32         -4.0050     0.5620    -3.1330 c6         1 9NP      -0.073400
     23 C25         -2.8990     0.0130    -2.2370 c6         1 9NP      -0.074400
     24 N2          -1.7090    -0.9900     0.2810 na         1 9NP      -0.169600
     25 C23         -3.9950    -1.0030     1.4190 ca         1 9NP      -0.091000
     26 C29         -4.8320    -1.8630     2.1050 ca         1 9NP      -0.098000
     27 C30         -4.4700    -3.1910     2.3790 ca         1 9NP      -0.132000
     28 C12         -2.3950    -2.8390     1.2700 ca         1 9NP       0.058400
     29 C1          -0.7780    -1.9900     0.1890 cd         1 9NP       0.441400
     30 C14          0.5150    -1.8170    -0.4960 ca         1 9NP      -0.087900
     31 C18          0.5830    -1.7500    -1.8850 ca         1 9NP      -0.087000
     32 C19          1.8050    -1.6140    -2.5190 ca         1 9NP      -0.084500
     33 N7           4.5420    -1.5280    -3.7170 na         1 9NP      -0.210700
     34 N5           5.8320    -1.3320    -3.9180 nc         1 9NP      -0.200800
     35 N6           6.3420    -1.0930    -2.7750 nd         1 9NP      -0.038000
     36 N11          5.4170    -1.1260    -1.8200 nd         1 9NP      -0.385000
     37 H1           1.6450    -1.7970     1.3300 ha         1 9NP       0.134000
     38 H2           3.8150    -1.5540     0.2110 ha         1 9NP       0.129000
     39 H3          -3.5640     0.9610    -0.4330 hc         1 9NP       0.076700
     40 H4           0.0430     2.4460     2.9860 h1         1 9NP       0.081700
     41 H5          -2.9580    -4.7120     2.1820 ha         1 9NP       0.128000
     42 H6          -2.2090     3.0120    -0.6360 hc         1 9NP       0.042450
     43 H7          -1.3820     2.3450    -2.0370 hc         1 9NP       0.042450
     44 H9           2.4740     2.8210     1.1910 hc         1 9NP       0.044700
     45 H10          0.6020     1.6900     0.2120 hn         1 9NP       0.309500
     46 H11          2.1890     3.3060     4.1920 hc         1 9NP       0.044950
     47 H12          3.6530     3.4890     3.2480 hc         1 9NP       0.044950
     48 H13          2.5340     5.6910     3.6630 hc         1 9NP       0.041700
     49 H14          2.6350     5.3300     1.9490 hc         1 9NP       0.041700
     50 H15          0.1870     4.9320     3.7300 hc         1 9NP       0.044950
     51 H16          0.3690     6.1690     2.5010 hc         1 9NP       0.044950
     52 H17          0.4790     4.4410     0.7270 hc         1 9NP       0.044700
     53 H18         -0.9940     4.2520     1.6670 hc         1 9NP       0.044700
     54 H19         -0.6230     0.3420    -0.8270 h1         1 9NP       0.066700
     55 H20         -4.3590     2.9930    -1.8160 hc         1 9NP       0.044450
     56 H21         -3.1690     3.8970    -2.7320 hc         1 9NP       0.044450
     57 H22         -4.5040     2.3750    -4.2010 hc         1 9NP       0.040200
     58 H23         -2.7990     1.9660    -4.2300 hc         1 9NP       0.040200
     59 H24         -4.9520     0.5600    -2.5820 hc         1 9NP       0.044450
     60 H25         -4.1420    -0.0980    -3.9920 hc         1 9NP       0.044450
     61 H26         -1.9730    -0.0620    -2.8200 hc         1 9NP       0.042450
     62 H27         -3.1520    -0.9990    -1.9110 hc         1 9NP       0.042450
     63 H28         -4.2930     0.0190     1.2480 ha         1 9NP       0.130000
     64 H29         -5.7910    -1.4970     2.4480 ha         1 9NP       0.113000
     65 H30         -5.1560    -3.8250     2.9240 ha         1 9NP       0.114000
     66 H31         -0.3200    -1.8110    -2.4810 ha         1 9NP       0.134000
     67 H32          1.8240    -1.5620    -3.6000 ha         1 9NP       0.129000
     68 H33          3.9350    -1.7540    -4.4930 hn         1 9NP       0.388000
     69 H8           2.2770     1.5790     2.4230 hc         1 9NP       0.044700
@<TRIPOS>BOND
     1     1    28 1   
     2     1    29 2   
     3     2    13 2   
     4     2    14 1   
     5     2    19 1   
     6     3     5 1   
     7     3    33 1   
     8     3    36 2   
     9     4    24 1   
    10     4    25 ar  
    11     4    28 ar  
    12     5     7 ar  
    13     5    32 ar  
    14     6     7 ar  
    15     6    30 ar  
    16     6    37 1   
    17     7    38 1   
    18     8    11 1   
    19     8    19 1   
    20     8    23 1   
    21     8    39 1   
    22     9    12 1   
    23     9    14 1   
    24     9    18 1   
    25     9    40 1   
    26    10    27 ar  
    27    10    28 ar  
    28    10    41 1   
    29    11    20 1   
    30    11    42 1   
    31    11    43 1   
    32    12    15 1   
    33    12    44 1   
    34    12    69 1   
    35    14    45 1   
    36    15    16 1   
    37    15    46 1   
    38    15    47 1   
    39    16    17 1   
    40    16    48 1   
    41    16    49 1   
    42    17    18 1   
    43    17    50 1   
    44    17    51 1   
    45    18    52 1   
    46    18    53 1   
    47    19    24 1   
    48    19    54 1   
    49    20    21 1   
    50    20    55 1   
    51    20    56 1   
    52    21    22 1   
    53    21    57 1   
    54    21    58 1   
    55    22    23 1   
    56    22    59 1   
    57    22    60 1   
    58    23    61 1   
    59    23    62 1   
    60    24    29 1   
    61    25    26 ar  
    62    25    63 1   
    63    26    27 ar  
    64    26    64 1   
    65    27    65 1   
    66    29    30 1   
    67    30    31 ar  
    68    31    32 ar  
    69    31    66 1   
    70    32    67 1   
    71    33    34 1   
    72    33    68 1   
    73    34    35 2   
    74    35    36 1   
@<TRIPOS>SUBSTRUCTURE
     1 9NP         1 TEMP              0 ****  ****    0 ROOT
