@<TRIPOS>MOLECULE
9NP
   69    74     1     0     0
SMALL
No Charge or Current Charge


@<TRIPOS>ATOM
      1 N3          -0.9090    -2.8990     1.0100 nc         1 9NP      -0.551100
      2 C4          -1.4500     1.4560     0.8990 c          1 9NP       0.588100
      3 C8           4.4560    -1.3930    -2.4590 cc         1 9NP       0.453000
      4 C10         -2.6690    -1.4500     1.0250 ca         1 9NP      -0.054200
      5 C15          3.1480    -1.5010    -1.7940 ca         1 9NP      -0.134500
      6 C17          1.8160    -2.0850     0.1770 ca         1 9NP      -0.087000
      7 C20          3.0600    -1.9770    -0.4680 ca         1 9NP      -0.084500
      8 C21         -2.8500     0.9760    -1.2610 c6         1 9NP      -0.065700
      9 C22          0.3830     2.6620     2.1610 c6         1 9NP       0.107700
     10 C24         -2.9000    -3.4110     2.4140 ca         1 9NP      -0.052000
     11 C26         -2.4990     2.3380    -1.9310 c6         1 9NP      -0.074400
     12 C28          1.8580     2.3120     2.4860 c6         1 9NP      -0.089900
     13 O16         -2.3450     1.9220     1.5920 o          1 9NP      -0.583100
     14 N13         -0.1230     1.7650     1.1180 ns         1 9NP      -0.497900
     15 C34          2.4420     3.2650     3.5590 c6         1 9NP      -0.071900
     16 C35          2.3220     4.7430     3.1160 c6         1 9NP      -0.077400
     17 C33          0.8570     5.1050     2.7680 c6         1 9NP      -0.071900
     18 C27          0.2810     4.1400     1.7010 c6         1 9NP      -0.089900
     19 C9          -1.7020     0.5060    -0.2960 c3         1 9NP       0.014300
     20 C31         -3.6370     2.8290    -2.8590 c6         1 9NP      -0.073400
     21 C36         -3.9820     1.7690    -3.9320 c6         1 9NP      -0.076400
     22 C32         -4.3370     0.4130    -3.2790 c6         1 9NP      -0.073400
     23 C25         -3.1960    -0.0800    -2.3540 c6         1 9NP      -0.074400
     24 N2          -1.7420    -0.9120     0.1590 na         1 9NP      -0.169600
     25 C23         -3.9300    -0.9690     1.4240 ca         1 9NP      -0.091000
     26 C29         -4.6820    -1.7390     2.3340 ca         1 9NP      -0.098000
     27 C30         -4.1700    -2.9590     2.8260 ca         1 9NP      -0.132000
     28 C12         -2.1680    -2.6290     1.5070 ca         1 9NP       0.058400
     29 C1          -0.6770    -1.8450     0.2040 cd         1 9NP       0.441400
     30 C14          0.6290    -1.6970    -0.4760 ca         1 9NP      -0.087900
     31 C18          0.7110    -1.2580    -1.8140 ca         1 9NP      -0.087000
     32 C19          1.9530    -1.1510    -2.4620 ca         1 9NP      -0.084500
     33 N7           4.6850    -0.9430    -3.7280 na         1 9NP      -0.210700
     34 N5           6.0110    -0.9790    -4.0150 nc         1 9NP      -0.200800
     35 N6           6.5650    -1.4440    -2.9280 nd         1 9NP      -0.038000
     36 N11          5.6320    -1.7080    -1.9530 nd         1 9NP      -0.385000
     37 H1           1.7800    -2.4580     1.1980 ha         1 9NP       0.134000
     38 H2           3.9580    -2.2700     0.0720 ha         1 9NP       0.129000
     39 H3          -3.7460     1.1340    -0.6500 hc         1 9NP       0.076700
     40 H4          -0.2240     2.5230     3.0700 h1         1 9NP       0.081700
     41 H5          -2.4920    -4.3450     2.7920 ha         1 9NP       0.128000
     42 H6          -2.3080     3.1030    -1.1650 hc         1 9NP       0.042450
     43 H7          -1.5700     2.2420    -2.5110 hc         1 9NP       0.042450
     44 H9           2.4680     2.3690     1.5730 hc         1 9NP       0.044700
     45 H10          0.5520     1.3360     0.4970 hn         1 9NP       0.309500
     46 H11          1.9130     3.1180     4.5110 hc         1 9NP       0.044950
     47 H12          3.4960     3.0160     3.7450 hc         1 9NP       0.044950
     48 H13          2.6900     5.4030     3.9140 hc         1 9NP       0.041700
     49 H14          2.9640     4.9210     2.2420 hc         1 9NP       0.041700
     50 H15          0.2390     5.0630     3.6770 hc         1 9NP       0.044950
     51 H16          0.8050     6.1400     2.4030 hc         1 9NP       0.044950
     52 H17          0.8210     4.2750     0.7530 hc         1 9NP       0.044700
     53 H18         -0.7670     4.3990     1.5020 hc         1 9NP       0.044700
     54 H19         -0.7970     0.5980    -0.9040 h1         1 9NP       0.066700
     55 H20         -4.5310     3.0550    -2.2610 hc         1 9NP       0.044450
     56 H21         -3.3420     3.7690    -3.3450 hc         1 9NP       0.044450
     57 H22         -4.8230     2.1190    -4.5470 hc         1 9NP       0.040200
     58 H23         -3.1290     1.6410    -4.6140 hc         1 9NP       0.040200
     59 H24         -5.2660     0.5110    -2.7010 hc         1 9NP       0.044450
     60 H25         -4.5330    -0.3360    -4.0590 hc         1 9NP       0.044450
     61 H26         -2.3080    -0.2980    -2.9620 hc         1 9NP       0.042450
     62 H27         -3.5010    -1.0280    -1.8900 hc         1 9NP       0.042450
     63 H28         -4.3290    -0.0290     1.0610 ha         1 9NP       0.130000
     64 H29         -5.6600    -1.3910     2.6590 ha         1 9NP       0.113000
     65 H30         -4.7540    -3.5500     3.5290 ha         1 9NP       0.114000
     66 H31         -0.1920    -1.0120    -2.3650 ha         1 9NP       0.134000
     67 H32          1.9720    -0.8000    -3.4920 ha         1 9NP       0.129000
     68 H33          3.9950    -0.6200    -4.3940 hn         1 9NP       0.388000
     69 H8           1.9240     1.2740     2.8410 hc         1 9NP       0.044700
@<TRIPOS>BOND
     1     1    28 1   
     2     1    29 2   
     3     2    13 2   
     4     2    14 1   
     5     2    19 1   
     6     3     5 1   
     7     3    33 1   
     8     3    36 2   
     9     4    24 1   
    10     4    25 ar  
    11     4    28 ar  
    12     5     7 ar  
    13     5    32 ar  
    14     6     7 ar  
    15     6    30 ar  
    16     6    37 1   
    17     7    38 1   
    18     8    11 1   
    19     8    19 1   
    20     8    23 1   
    21     8    39 1   
    22     9    12 1   
    23     9    14 1   
    24     9    18 1   
    25     9    40 1   
    26    10    27 ar  
    27    10    28 ar  
    28    10    41 1   
    29    11    20 1   
    30    11    42 1   
    31    11    43 1   
    32    12    15 1   
    33    12    44 1   
    34    12    69 1   
    35    14    45 1   
    36    15    16 1   
    37    15    46 1   
    38    15    47 1   
    39    16    17 1   
    40    16    48 1   
    41    16    49 1   
    42    17    18 1   
    43    17    50 1   
    44    17    51 1   
    45    18    52 1   
    46    18    53 1   
    47    19    24 1   
    48    19    54 1   
    49    20    21 1   
    50    20    55 1   
    51    20    56 1   
    52    21    22 1   
    53    21    57 1   
    54    21    58 1   
    55    22    23 1   
    56    22    59 1   
    57    22    60 1   
    58    23    61 1   
    59    23    62 1   
    60    24    29 1   
    61    25    26 ar  
    62    25    63 1   
    63    26    27 ar  
    64    26    64 1   
    65    27    65 1   
    66    29    30 1   
    67    30    31 ar  
    68    31    32 ar  
    69    31    66 1   
    70    32    67 1   
    71    33    34 1   
    72    33    68 1   
    73    34    35 2   
    74    35    36 1   
@<TRIPOS>SUBSTRUCTURE
     1 9NP         1 TEMP              0 ****  ****    0 ROOT
