@<TRIPOS>MOLECULE
9NQ
   57    60     1     0     0
SMALL
abcg2


@<TRIPOS>ATOM
      1 C1           2.6610   -33.2870   -20.5810 c3         1 9NQ      -0.148400
      2 C2           3.9380   -34.0970   -20.7320 c          1 9NQ       0.600100
      3 C3           5.4950   -35.2240   -22.2600 c5         1 9NQ       0.100000
      4 O1          13.0030   -29.8100   -21.8740 os         1 9NQ      -0.455300
      5 C11          8.0470   -28.9930   -25.7090 c6         1 9NQ       0.190800
      6 C12          7.4420   -31.0130   -24.4940 c6         1 9NQ       0.256100
      7 C13          6.0900   -30.9170   -25.1380 ca         1 9NQ      -0.263300
      8 C14          9.3810   -29.7610   -23.8030 ca         1 9NQ       0.178000
      9 C15         10.5700   -29.3400   -24.3920 ca         1 9NQ       0.356900
     10 C16         11.8240   -29.7810   -22.5210 ca         1 9NQ       0.609300
     11 C17         14.1700   -29.3730   -22.5870 c3         1 9NQ       0.161900
     12 C18         10.6840   -30.2410   -21.8280 ca         1 9NQ      -0.249300
     13 C19          9.4710   -30.2210   -22.4790 ca         1 9NQ      -0.023000
     14 C20         10.7890   -30.7360   -20.4170 c3         1 9NQ       0.363300
     15 F2          11.2820   -29.8000   -19.5720 f          1 9NQ      -0.108333
     16 F            9.5910   -31.1080   -19.9190 f          1 9NQ      -0.108333
     17 F1          11.6000   -31.8150   -20.3090 f          1 9NQ      -0.108333
     18 N5          11.7540   -29.3410   -23.7590 nb         1 9NQ      -0.738000
     19 N4           8.1330   -29.7220   -24.4470 nh         1 9NQ      -0.768400
     20 C10          6.5950   -28.6270   -25.9850 c6         1 9NQ      -0.135700
     21 C9           5.6750   -29.7990   -25.8250 ca         1 9NQ       0.165300
     22 N3           4.4410   -29.7050   -26.3750 nb         1 9NQ      -0.220000
     23 C8           3.6560   -30.7600   -26.2200 ca         1 9NQ       0.164900
     24 N2           3.9510   -31.9030   -25.6050 nb         1 9NQ      -0.271000
     25 C7           5.1780   -32.0010   -25.0680 ca         1 9NQ       0.393900
     26 N1           5.5200   -33.1600   -24.4650 nu         1 9NQ      -0.938100
     27 C5           4.6260   -34.3000   -24.3120 c5         1 9NQ       0.236500
     28 C4           5.4070   -35.4960   -23.7640 c5         1 9NQ      -0.114400
     29 C6           3.5810   -34.0610   -23.2160 c5         1 9NQ       0.089000
     30 N            4.2900   -34.4320   -21.9870 n          1 9NQ      -0.429800
     31 O            4.6250   -34.4360   -19.7610 o          1 9NQ      -0.610100
     32 C            2.2530   -33.0590   -19.1330 c3         1 9NQ      -0.076100
     33 H1           2.8060   -32.3290   -21.0900 hc         1 9NQ       0.055200
     34 H2           1.8620   -33.7940   -21.1300 hc         1 9NQ       0.055200
     35 H3           5.5000   -36.1370   -21.6660 h1         1 9NQ       0.058200
     36 H4           6.3890   -34.6510   -21.9960 h1         1 9NQ       0.058200
     37 H5           8.4520   -29.5850   -26.5430 h1         1 9NQ       0.044700
     38 H6           8.6390   -28.0840   -25.6300 h1         1 9NQ       0.044700
     39 H7           7.3240   -31.3840   -23.4750 h1         1 9NQ       0.040700
     40 H8           8.0550   -31.7560   -25.0320 h1         1 9NQ       0.040700
     41 H9          10.5890   -28.9800   -25.4120 h4         1 9NQ       0.026100
     42 H10         14.9900   -29.4820   -21.8830 h1         1 9NQ       0.052033
     43 H11         14.3390   -29.9960   -23.4650 h1         1 9NQ       0.052033
     44 H12         14.0670   -28.3330   -22.8940 h1         1 9NQ       0.052033
     45 H13          8.5820   -30.5470   -21.9580 ha         1 9NQ       0.145000
     46 H14          6.2770   -27.8350   -25.2990 hc         1 9NQ       0.078700
     47 H15          6.4920   -28.2310   -26.9970 hc         1 9NQ       0.078700
     48 H16          2.6590   -30.6930   -26.6450 h5         1 9NQ       0.048100
     49 H17          6.4530   -33.2520   -24.1000 hn         1 9NQ       0.500000
     50 H18          4.1470   -34.5120   -25.2670 h1         1 9NQ       0.088700
     51 H19          4.8310   -36.4020   -23.9500 hc         1 9NQ       0.065200
     52 H20          6.3840   -35.6100   -24.2320 hc         1 9NQ       0.065200
     53 H21          3.2490   -33.0270   -23.1920 h1         1 9NQ       0.062700
     54 H22          2.7110   -34.7040   -23.3770 h1         1 9NQ       0.062700
     55 H23          1.3340   -32.4730   -19.0930 hc         1 9NQ       0.043033
     56 H24          2.0770   -34.0050   -18.6190 hc         1 9NQ       0.043033
     57 H25          3.0260   -32.5200   -18.5850 hc         1 9NQ       0.043033
@<TRIPOS>BOND
     1     1     2 1   
     2     1    32 1   
     3     1    33 1   
     4     1    34 1   
     5     2    30 1   
     6     2    31 2   
     7     3    28 1   
     8     3    30 1   
     9     3    35 1   
    10     3    36 1   
    11     4    10 1   
    12     4    11 1   
    13     5    19 1   
    14     5    20 1   
    15     5    37 1   
    16     5    38 1   
    17     6     7 1   
    18     6    19 1   
    19     6    39 1   
    20     6    40 1   
    21     7    21 ar  
    22     7    25 ar  
    23     8     9 ar  
    24     8    13 ar  
    25     8    19 1   
    26     9    18 ar  
    27     9    41 1   
    28    10    12 ar  
    29    10    18 ar  
    30    11    42 1   
    31    11    43 1   
    32    11    44 1   
    33    12    13 ar  
    34    12    14 1   
    35    13    45 1   
    36    14    15 1   
    37    14    16 1   
    38    14    17 1   
    39    20    21 1   
    40    20    46 1   
    41    20    47 1   
    42    21    22 ar  
    43    22    23 ar  
    44    23    24 ar  
    45    23    48 1   
    46    24    25 ar  
    47    25    26 1   
    48    26    27 1   
    49    26    49 1   
    50    27    28 1   
    51    27    29 1   
    52    27    50 1   
    53    28    51 1   
    54    28    52 1   
    55    29    30 1   
    56    29    53 1   
    57    29    54 1   
    58    32    55 1   
    59    32    56 1   
    60    32    57 1   
@<TRIPOS>SUBSTRUCTURE
     1 9NQ         1 TEMP              0 ****  ****    0 ROOT
