@<TRIPOS>MOLECULE
9NQ
   57    60     1     0     0
SMALL
No Charge or Current Charge


@<TRIPOS>ATOM
      1 C1           4.6880   -32.1810   -20.8600 c3         1 9NQ      -0.148400
      2 C2           5.4510   -33.4630   -21.2520 c          1 9NQ       0.600100
      3 C3           5.7960   -35.3130   -22.9460 c5         1 9NQ       0.100000
      4 O1          12.1620   -29.9860   -21.0250 os         1 9NQ      -0.455300
      5 C11          7.4510   -29.0850   -25.3510 c6         1 9NQ       0.190800
      6 C12          6.9700   -31.4290   -24.5950 c6         1 9NQ       0.256100
      7 C13          5.7160   -31.3460   -25.4710 ca         1 9NQ      -0.263300
      8 C14          8.7650   -30.0910   -23.4420 ca         1 9NQ       0.178000
      9 C15          9.9830   -29.4570   -23.8100 ca         1 9NQ       0.356900
     10 C16         11.0420   -30.0200   -21.8250 ca         1 9NQ       0.609300
     11 C17         13.3720   -29.3280   -21.4490 c3         1 9NQ       0.161900
     12 C18          9.8880   -30.6790   -21.3550 ca         1 9NQ      -0.249300
     13 C19          8.7360   -30.7100   -22.1780 ca         1 9NQ      -0.023000
     14 C20          9.8970   -31.3390   -19.9760 c3         1 9NQ       0.363300
     15 F2          10.1340   -30.4430   -18.9920 f          1 9NQ      -0.108333
     16 F            8.7240   -31.9370   -19.6720 f          1 9NQ      -0.108333
     17 F1          10.8470   -32.2970   -19.8840 f          1 9NQ      -0.108333
     18 N5          11.0910   -29.4190   -23.0320 nb         1 9NQ      -0.738000
     19 N4           7.6130   -30.1160   -24.2910 nh         1 9NQ      -0.768400
     20 C10          5.9640   -28.8210   -25.6210 c6         1 9NQ      -0.135700
     21 C9           5.2420   -30.1120   -25.9500 ca         1 9NQ       0.165300
     22 N3           4.1370   -30.0170   -26.7150 nb         1 9NQ      -0.220000
     23 C8           3.5070   -31.1740   -27.0000 ca         1 9NQ       0.164900
     24 N2           3.8700   -32.4050   -26.5920 nb         1 9NQ      -0.271000
     25 C7           4.9750   -32.4870   -25.8250 ca         1 9NQ       0.393900
     26 N1           5.3450   -33.7550   -25.3750 nu         1 9NQ      -0.938100
     27 C5           4.2360   -34.4660   -24.6540 c5         1 9NQ       0.236500
     28 C4           4.9030   -35.7710   -24.1400 c5         1 9NQ      -0.114400
     29 C6           3.9680   -33.6910   -23.3210 c5         1 9NQ       0.089000
     30 N            5.1110   -34.0930   -22.4650 n          1 9NQ      -0.429800
     31 O            6.3450   -33.9180   -20.5500 o          1 9NQ      -0.610100
     32 C            5.0730   -31.5480   -19.5040 c3         1 9NQ      -0.076100
     33 H1           4.8000   -31.4600   -21.6780 hc         1 9NQ       0.055200
     34 H2           3.6140   -32.3940   -20.9090 hc         1 9NQ       0.055200
     35 H3           5.8600   -36.0860   -22.1690 h1         1 9NQ       0.058200
     36 H4           6.8180   -35.0760   -23.2730 h1         1 9NQ       0.058200
     37 H5           7.9400   -29.4170   -26.2790 h1         1 9NQ       0.044700
     38 H6           7.9190   -28.1370   -25.0460 h1         1 9NQ       0.044700
     39 H7           6.6870   -31.9250   -23.6560 h1         1 9NQ       0.040700
     40 H8           7.7010   -32.0780   -25.0980 h1         1 9NQ       0.040700
     41 H9          10.0820   -28.9670   -24.7770 h4         1 9NQ       0.026100
     42 H10         14.1440   -29.4130   -20.6740 h1         1 9NQ       0.052033
     43 H11         13.7650   -29.7820   -22.3680 h1         1 9NQ       0.052033
     44 H12         13.1950   -28.2610   -21.6350 h1         1 9NQ       0.052033
     45 H13          7.8240   -31.1960   -21.8450 ha         1 9NQ       0.145000
     46 H14          5.5050   -28.3630   -24.7350 hc         1 9NQ       0.078700
     47 H15          5.8630   -28.1000   -26.4420 hc         1 9NQ       0.078700
     48 H16          2.6140   -31.1060   -27.6190 h5         1 9NQ       0.048100
     49 H17          6.2690   -33.7830   -24.9550 hn         1 9NQ       0.500000
     50 H18          3.3330   -34.6410   -25.2600 h1         1 9NQ       0.088700
     51 H19          4.1310   -36.4620   -23.7830 hc         1 9NQ       0.065200
     52 H20          5.4670   -36.3060   -24.9130 hc         1 9NQ       0.065200
     53 H21          3.9040   -32.6060   -23.4700 h1         1 9NQ       0.062700
     54 H22          3.0240   -34.0210   -22.8680 h1         1 9NQ       0.062700
     55 H23          4.4580   -30.6620   -19.3080 hc         1 9NQ       0.043033
     56 H24          4.9170   -32.2600   -18.6840 hc         1 9NQ       0.043033
     57 H25          6.1240   -31.2390   -19.5030 hc         1 9NQ       0.043033
@<TRIPOS>BOND
     1     1     2 1   
     2     1    32 1   
     3     1    33 1   
     4     1    34 1   
     5     2    30 1   
     6     2    31 2   
     7     3    28 1   
     8     3    30 1   
     9     3    35 1   
    10     3    36 1   
    11     4    10 1   
    12     4    11 1   
    13     5    19 1   
    14     5    20 1   
    15     5    37 1   
    16     5    38 1   
    17     6     7 1   
    18     6    19 1   
    19     6    39 1   
    20     6    40 1   
    21     7    21 ar  
    22     7    25 ar  
    23     8     9 ar  
    24     8    13 ar  
    25     8    19 1   
    26     9    18 ar  
    27     9    41 1   
    28    10    12 ar  
    29    10    18 ar  
    30    11    42 1   
    31    11    43 1   
    32    11    44 1   
    33    12    13 ar  
    34    12    14 1   
    35    13    45 1   
    36    14    15 1   
    37    14    16 1   
    38    14    17 1   
    39    20    21 1   
    40    20    46 1   
    41    20    47 1   
    42    21    22 ar  
    43    22    23 ar  
    44    23    24 ar  
    45    23    48 1   
    46    24    25 ar  
    47    25    26 1   
    48    26    27 1   
    49    26    49 1   
    50    27    28 1   
    51    27    29 1   
    52    27    50 1   
    53    28    51 1   
    54    28    52 1   
    55    29    30 1   
    56    29    53 1   
    57    29    54 1   
    58    32    55 1   
    59    32    56 1   
    60    32    57 1   
@<TRIPOS>SUBSTRUCTURE
     1 9NQ         1 TEMP              0 ****  ****    0 ROOT
