@<TRIPOS>MOLECULE
9NR
   52    53     1     0     0
SMALL
No Charge or Current Charge


@<TRIPOS>ATOM
      1 N           29.9340     6.7220    32.6480 n7         1 9NR      -0.849300
      2 CA          28.6670     7.4880    32.8920 c3         1 9NR       0.049500
      3 C           28.5000     8.0240    34.3680 c          1 9NR       0.717000
      4 O           28.9340     7.3380    35.2860 o          1 9NR      -0.709000
      5 CB          27.4500     6.6260    32.4600 c3         1 9NR      -0.044400
      6 CG          27.2370     5.3110    33.2520 c3         1 9NR      -0.082400
      7 CD          26.0240     4.5050    32.7470 c3         1 9NR       0.220800
      8 NE          25.8610     3.2690    33.5250 nu         1 9NR      -0.899400
      9 CZ          24.9090     2.3770    33.3090 c2         1 9NR       0.798100
     10 NH1         24.0120     2.4730    32.4500 n2         1 9NR      -0.903100
     11 NH2         25.0370     1.4720    34.2420 nv         1 9NR      -1.073200
     12 OXT         27.9960     9.1270    34.5320 o          1 9NR      -0.709000
     13 S1          31.3830     7.5380    32.4870 sy         1 9NR       1.134600
     14 O2          31.5000     8.4220    33.6470 o          1 9NR      -0.571500
     15 O3          32.3590     6.4710    32.2530 o          1 9NR      -0.571500
     16 N1          29.9690    12.3490    28.0890 nh         1 9NR      -0.774400
     17 C1          31.1240     8.4470    30.9270 ca         1 9NR      -0.272500
     18 C2          31.4740     7.7350    29.7580 ca         1 9NR      -0.003000
     19 C3          31.3580     8.3180    28.4940 ca         1 9NR      -0.152000
     20 C4          30.8950     9.6290    28.3660 ca         1 9NR      -0.045000
     21 C5          30.5240    10.3770    29.5060 ca         1 9NR      -0.057000
     22 C6          30.6160     9.7830    30.8020 ca         1 9NR       0.062000
     23 C7          30.1770    10.5520    31.9090 ca         1 9NR      -0.102000
     24 C8          29.6900    11.8550    31.7490 ca         1 9NR      -0.072000
     25 C9          29.6300    12.4310    30.4780 ca         1 9NR      -0.160000
     26 C10         30.0430    11.7080    29.3510 ca         1 9NR       0.262000
     27 C11         28.6920    12.9150    27.6090 c3         1 9NR       0.173100
     28 C12         31.2010    12.8150    27.4200 c3         1 9NR       0.173100
     29 H           30.1380     6.1890    33.4940 hn         1 9NR       0.524000
     30 H111        28.6100    13.9740    27.8900 h1         1 9NR       0.030367
     31 H112        28.6230    12.8330    26.5160 h1         1 9NR       0.030367
     32 H113        27.8430    12.3700    28.0430 h1         1 9NR       0.030367
     33 H121        31.1990    12.5180    26.3630 h1         1 9NR       0.030367
     34 H122        31.2820    13.9090    27.4820 h1         1 9NR       0.030367
     35 H123        32.0890    12.3760    27.8950 h1         1 9NR       0.030367
     36 H2          31.8400     6.7110    29.8190 ha         1 9NR       0.138000
     37 H3          31.6320     7.7500    27.6080 ha         1 9NR       0.107000
     38 H4          30.8130    10.0490    27.3680 ha         1 9NR       0.118000
     39 H7          30.1690    10.1650    32.9170 ha         1 9NR       0.136000
     40 H8          29.3580    12.4200    32.6170 ha         1 9NR       0.113000
     41 H9          29.2630    13.4470    30.3690 ha         1 9NR       0.105000
     42 HA          28.6470     8.3660    32.2360 h1         1 9NR       0.038700
     43 HB1C        26.5440     7.2400    32.5450 hc         1 9NR       0.042200
     44 HB2C        27.5570     6.3850    31.3950 hc         1 9NR       0.042200
     45 HG1C        28.1350     4.6850    33.1730 hc         1 9NR       0.054200
     46 HG2C        27.0930     5.5420    34.3130 hc         1 9NR       0.054200
     47 HD1C        25.1190     5.1240    32.8310 h1         1 9NR       0.044700
     48 HD2C        26.1700     4.2620    31.6850 h1         1 9NR       0.044700
     49 HH11        23.3830     1.6720    32.5650 hn         1 9NR       0.361400
     50 HH21        26.0090     1.2410    34.3890 hn         1 9NR       0.443000
     51 HH22        24.4490     0.6620    34.0980 hn         1 9NR       0.443000
     52 HE          26.1130     3.3140    34.5030 hn         1 9NR       0.467000
@<TRIPOS>BOND
     1     1     2 1   
     2     1    13 1   
     3     1    29 1   
     4     2     3 1   
     5     2     5 1   
     6     2    42 1   
     7     3     4 1   
     8     3    12 1   
     9     5     6 1   
    10     5    43 1   
    11     5    44 1   
    12     6     7 1   
    13     6    45 1   
    14     6    46 1   
    15     7     8 1   
    16     7    47 1   
    17     7    48 1   
    18     8     9 1   
    19     8    52 1   
    20     9    10 2   
    21     9    11 1   
    22    10    49 1   
    23    11    50 1   
    24    11    51 1   
    25    13    14 2   
    26    13    15 2   
    27    13    17 1   
    28    16    26 1   
    29    16    27 1   
    30    16    28 1   
    31    17    18 ar  
    32    17    22 ar  
    33    18    19 ar  
    34    18    36 1   
    35    19    20 ar  
    36    19    37 1   
    37    20    21 ar  
    38    20    38 1   
    39    21    22 ar  
    40    21    26 ar  
    41    22    23 ar  
    42    23    24 ar  
    43    23    39 1   
    44    24    25 ar  
    45    24    40 1   
    46    25    26 ar  
    47    25    41 1   
    48    27    30 1   
    49    27    31 1   
    50    27    32 1   
    51    28    33 1   
    52    28    34 1   
    53    28    35 1   
@<TRIPOS>SUBSTRUCTURE
     1 9NR         1 TEMP              0 ****  ****    0 ROOT
