@<TRIPOS>MOLECULE
9NR
   52    53     1     0     0
SMALL
bcc


@<TRIPOS>ATOM
      1 N           28.9760     7.3240    32.4690 n7         1 9NR      -0.794100
      2 CA          27.8730     7.0240    31.5560 c3         1 9NR       0.049500
      3 C           26.7070     8.0010    31.8870 c          1 9NR       0.927600
      4 O           26.9350     8.8670    32.7560 o          1 9NR      -0.814300
      5 CB          27.4420     5.5640    31.6300 c3         1 9NR      -0.044400
      6 CG          26.9390     5.1270    32.9980 c3         1 9NR      -0.082400
      7 CD          26.5260     3.6630    32.9890 c3         1 9NR       0.220800
      8 NE          26.0470     3.2580    34.2890 nu         1 9NR      -0.844200
      9 CZ          25.4710     2.0340    34.4810 c2         1 9NR       0.798100
     10 NH1         25.1770     1.2890    33.4770 n2         1 9NR      -0.903100
     11 NH2         25.1670     1.7520    35.7990 nv         1 9NR      -0.962800
     12 OXT         25.6640     7.8260    31.2410 o          1 9NR      -0.814300
     13 S1          30.5120     7.2880    31.9270 sy         1 9NR       1.276200
     14 O2          31.3660     7.7840    32.9970 o          1 9NR      -0.642300
     15 O3          30.7630     5.9540    31.4010 o          1 9NR      -0.642300
     16 N1          30.5360    12.8290    28.4870 nh         1 9NR      -0.636000
     17 C1          30.6120     8.4170    30.5450 ca         1 9NR      -0.272500
     18 C2          30.8130     7.8610    29.3100 ca         1 9NR      -0.021000
     19 C3          30.8430     8.6730    28.1650 ca         1 9NR      -0.170000
     20 C4          30.6930    10.0250    28.2840 ca         1 9NR      -0.063000
     21 C5          30.5220    10.6370    29.5470 ca         1 9NR      -0.057000
     22 C6          30.4480     9.8250    30.7140 ca         1 9NR       0.062000
     23 C7          30.1770    10.4500    31.9550 ca         1 9NR      -0.120000
     24 C8          29.9710    11.8000    32.0140 ca         1 9NR      -0.090000
     25 C9          30.0760    12.6100    30.8720 ca         1 9NR      -0.178000
     26 C10         30.3800    12.0590    29.6500 ca         1 9NR       0.123600
     27 C11         29.8350    14.0950    28.4560 c3         1 9NR       0.173100
     28 C12         31.9160    12.9780    28.0450 c3         1 9NR       0.173100
     29 H           28.7270     8.1540    33.0140 hn         1 9NR       0.468800
     30 H111        30.2840    14.8670    29.0950 h1         1 9NR       0.030367
     31 H112        29.8430    14.4750    27.4330 h1         1 9NR       0.030367
     32 H113        28.7970    13.9620    28.7570 h1         1 9NR       0.030367
     33 H121        31.9320    13.3670    27.0260 h1         1 9NR       0.030367
     34 H122        32.4790    13.6710    28.6840 h1         1 9NR       0.030367
     35 H123        32.4390    12.0240    28.0460 h1         1 9NR       0.030367
     36 H2          30.9290     6.7920    29.2010 ha         1 9NR       0.156000
     37 H3          30.9660     8.2180    27.1920 ha         1 9NR       0.125000
     38 H4          30.6780    10.6420    27.3970 ha         1 9NR       0.136000
     39 H7          30.1450     9.8870    32.8740 ha         1 9NR       0.154000
     40 H8          29.7490    12.2630    32.9660 ha         1 9NR       0.131000
     41 H9          29.9410    13.6780    30.9760 ha         1 9NR       0.123000
     42 HA          28.1650     7.2380    30.5180 h1         1 9NR       0.038700
     43 HB1C        26.6590     5.4100    30.8850 hc         1 9NR       0.042200
     44 HB2C        28.2770     4.9280    31.3270 hc         1 9NR       0.042200
     45 HG1C        27.7180     5.2870    33.7480 hc         1 9NR       0.054200
     46 HG2C        26.0790     5.7340    33.2980 hc         1 9NR       0.054200
     47 HD1C        25.7280     3.5140    32.2600 h1         1 9NR       0.044700
     48 HD2C        27.3690     3.0440    32.6560 h1         1 9NR       0.044700
     49 HH11        24.6960     0.4520    33.7860 hn         1 9NR       0.361400
     50 HH21        25.7070     2.2200    36.5100 hn         1 9NR       0.387800
     51 HH22        25.0470     0.7740    36.0060 hn         1 9NR       0.387800
     52 HE          26.5300     3.6660    35.0740 hn         1 9NR       0.411800
@<TRIPOS>BOND
     1     1     2 1   
     2     1    13 1   
     3     1    29 1   
     4     2     3 1   
     5     2     5 1   
     6     2    42 1   
     7     3     4 1   
     8     3    12 1   
     9     5     6 1   
    10     5    43 1   
    11     5    44 1   
    12     6     7 1   
    13     6    45 1   
    14     6    46 1   
    15     7     8 1   
    16     7    47 1   
    17     7    48 1   
    18     8     9 1   
    19     8    52 1   
    20     9    10 2   
    21     9    11 1   
    22    10    49 1   
    23    11    50 1   
    24    11    51 1   
    25    13    14 2   
    26    13    15 2   
    27    13    17 1   
    28    16    26 1   
    29    16    27 1   
    30    16    28 1   
    31    17    18 ar  
    32    17    22 ar  
    33    18    19 ar  
    34    18    36 1   
    35    19    20 ar  
    36    19    37 1   
    37    20    21 ar  
    38    20    38 1   
    39    21    22 ar  
    40    21    26 ar  
    41    22    23 ar  
    42    23    24 ar  
    43    23    39 1   
    44    24    25 ar  
    45    24    40 1   
    46    25    26 ar  
    47    25    41 1   
    48    27    30 1   
    49    27    31 1   
    50    27    32 1   
    51    28    33 1   
    52    28    34 1   
    53    28    35 1   
@<TRIPOS>SUBSTRUCTURE
     1 9NR         1 TEMP              0 ****  ****    0 ROOT
