@<TRIPOS>MOLECULE
9NS
   67    70     1     0     0
SMALL
No Charge or Current Charge


@<TRIPOS>ATOM
      1 C1          -5.8260     2.7530    -2.6890 ca         1 9NS      -0.133000
      2 C2          -6.3450     1.4570    -2.6100 ca         1 9NS      -0.114000
      3 C3           0.6030     3.4590     2.8250 cc         1 9NS      -0.200000
      4 C4          -4.4800     2.9890    -2.3720 ca         1 9NS      -0.071000
      5 C5          -5.5130     0.3990    -2.2220 ca         1 9NS      -0.128000
      6 C6          -0.2270    -1.9830    -1.3370 ca         1 9NS      -0.124000
      7 C7           1.1500    -1.8180    -1.5540 ca         1 9NS      -0.150000
      8 C8           0.7260     2.3070     2.0250 cc         1 9NS      -0.150000
      9 C9          -0.1080     4.3650     2.0890 cd         1 9NS       0.085900
     10 C10         -3.6240     1.9390    -1.9580 ca         1 9NS      -0.102600
     11 C11          0.0990    -1.6680     1.0670 ca         1 9NS      -0.099600
     12 C12         -4.1550     0.6150    -1.8940 ca         1 9NS      -0.045300
     13 C13         -0.7700    -1.8930    -0.0370 ca         1 9NS      -0.108300
     14 C14          2.0060    -1.5810    -0.4720 ca         1 9NS       0.071100
     15 C15          1.4820    -1.4960     0.8420 ca         1 9NS       0.047100
     16 C16          0.0800     2.5820     0.8520 cd         1 9NS       0.126300
     17 C18         -4.0650    -0.7640     2.1930 c2         1 9NS      -0.180200
     18 C19         -2.1860     2.3130    -1.6360 c          1 9NS       0.593700
     19 C21          7.7370    -1.2380    -1.4110 c          1 9NS       0.717000
     20 C22          3.6450    -0.7440     1.6140 c6         1 9NS       0.113600
     21 C23          4.2490    -1.5290     0.4260 c6         1 9NS       0.126300
     22 C24         -3.3220    -0.6250    -1.5470 c3         1 9NS       0.191100
     23 C25         -2.2790    -2.0710     0.1620 c3         1 9NS       0.213100
     24 C26         -0.0840     1.7220    -0.3780 c3         1 9NS       0.074700
     25 C27         -4.3280    -0.8030     0.7040 c3         1 9NS       0.192000
     26 C29          5.6450    -0.9950    -0.0040 c3         1 9NS      -0.048400
     27 N30         -1.4870     1.5120    -0.7640 ns         1 9NS      -0.468900
     28 N31         -3.0750    -0.8330    -0.0920 n3         1 9NS      -0.695600
     29 O32         -0.6400    -0.5420     2.9950 o          1 9NS      -0.718500
     30 O33          8.6760    -1.6640    -0.7570 o          1 9NS      -0.750500
     31 O34         -1.6550     3.2920    -2.1460 o          1 9NS      -0.639100
     32 O35         -0.5790    -2.6970     3.0610 o          1 9NS      -0.718500
     33 O36          7.8400    -0.3460    -2.2390 o          1 9NS      -0.750500
     34 O37         -0.4450     3.8570     0.8550 os         1 9NS      -0.232000
     35 O38          2.3250    -1.2450     1.9090 os         1 9NS      -0.311100
     36 O39          3.3590    -1.4390    -0.7080 os         1 9NS      -0.334100
     37 H1          -6.4650     3.5780    -2.9960 ha         1 9NS       0.100000
     38 H2          -7.3870     1.2700    -2.8570 ha         1 9NS       0.096000
     39 H4          -4.1010     4.0070    -2.4370 ha         1 9NS       0.129000
     40 H5          -5.9270    -0.6060    -2.1800 ha         1 9NS       0.102000
     41 H3           0.9980     3.5890     3.8280 ha         1 9NS       0.121000
     42 H8           1.2330     1.3860     2.2980 ha         1 9NS       0.179000
     43 H9          -0.4260     5.3740     2.3210 h4         1 9NS       0.026100
     44 H6          -0.8730    -2.1880    -2.1860 ha         1 9NS       0.083000
     45 H7           1.5550    -1.8880    -2.5610 ha         1 9NS       0.111000
     46 H241        -3.8310    -1.5080    -1.9570 h1         1 9NS       0.044700
     47 H242        -2.3730    -0.5510    -2.0920 h1         1 9NS       0.044700
     48 H251        -2.6270    -2.8810    -0.4950 h1         1 9NS       0.043700
     49 H252        -2.4500    -2.4410     1.1790 h1         1 9NS       0.043700
     50 H261         0.4620     2.1860    -1.2110 h1         1 9NS       0.084200
     51 H262         0.3780     0.7470    -0.1930 h1         1 9NS       0.084200
     52 H171        -5.5400    -2.1500     2.8570 ha         1 9NS       0.148000
     53 H172        -4.4810    -1.3900     4.1830 ha         1 9NS       0.148000
     54 H18         -3.2560    -0.0870     2.4760 ha         1 9NS       0.218000
     55 H271        -4.9480    -1.6760     0.4590 h1         1 9NS       0.023200
     56 H272        -4.9170     0.0900     0.4620 h1         1 9NS       0.023200
     57 H30         -1.9910     0.7130    -0.3770 hn         1 9NS       0.382500
     58 H281         5.7000    -1.7120    -2.0150 hc         1 9NS       0.025200
     59 H282         6.4140    -2.8370    -0.7500 hc         1 9NS       0.025200
     60 H221         4.2770    -0.8400     2.5080 h1         1 9NS       0.056200
     61 H222         3.5710     0.3220     1.3540 h1         1 9NS       0.056200
     62 H23          4.3430    -2.5860     0.7140 h1         1 9NS       0.047700
     63 H291         5.5550     0.0500    -0.3260 hc         1 9NS       0.048700
     64 H292         6.3050    -0.9860     0.8710 hc         1 9NS       0.048700
     65 C17         -4.7300    -1.4700     3.1240 c2         1 9NS      -0.344000
     66 C28          6.3380    -1.8100    -1.1280 c3         1 9NS      -0.203400
     67 C20         -0.4190    -1.6300     2.4830 c          1 9NS       0.727600
@<TRIPOS>BOND
     1     1     2 ar  
     2     1     4 ar  
     3     1    37 1   
     4     2     5 ar  
     5     2    38 1   
     6     3     8 1   
     7     3     9 2   
     8     3    41 1   
     9     4    10 ar  
    10     4    39 1   
    11     5    12 ar  
    12     5    40 1   
    13     6     7 ar  
    14     6    13 ar  
    15     6    44 1   
    16     7    14 ar  
    17     7    45 1   
    18     8    16 2   
    19     8    42 1   
    20     9    34 1   
    21     9    43 1   
    22    10    12 ar  
    23    10    18 1   
    24    11    13 ar  
    25    11    15 ar  
    26    11    67 1   
    27    12    22 1   
    28    13    23 1   
    29    14    15 ar  
    30    14    36 1   
    31    15    35 1   
    32    16    24 1   
    33    16    34 1   
    34    17    25 1   
    35    17    54 1   
    36    17    65 2   
    37    18    27 1   
    38    18    31 2   
    39    19    30 1   
    40    19    33 1   
    41    19    66 1   
    42    20    21 1   
    43    20    35 1   
    44    20    60 1   
    45    20    61 1   
    46    21    26 1   
    47    21    36 1   
    48    21    62 1   
    49    22    28 1   
    50    22    46 1   
    51    22    47 1   
    52    23    28 1   
    53    23    48 1   
    54    23    49 1   
    55    24    27 1   
    56    24    50 1   
    57    24    51 1   
    58    25    28 1   
    59    25    55 1   
    60    25    56 1   
    61    26    63 1   
    62    26    64 1   
    63    26    66 1   
    64    27    57 1   
    65    29    67 1   
    66    32    67 1   
    67    52    65 1   
    68    53    65 1   
    69    58    66 1   
    70    59    66 1   
@<TRIPOS>SUBSTRUCTURE
     1 9NS         1 TEMP              0 ****  ****    0 ROOT
