@<TRIPOS>MOLECULE
9NS
   67    70     1     0     0
SMALL
abcg2


@<TRIPOS>ATOM
      1 C1          -5.7030     2.6500    -2.2390 ca         1 9NS      -0.133000
      2 C2          -6.1660     1.3590    -2.4470 ca         1 9NS      -0.114000
      3 C3           0.5800     3.9600     2.8490 cc         1 9NS      -0.200000
      4 C4          -4.3930     2.8450    -1.8360 ca         1 9NS      -0.071000
      5 C5          -5.3190     0.2860    -2.2240 ca         1 9NS      -0.128000
      6 C6          -0.1370    -2.2960    -1.4880 ca         1 9NS      -0.124000
      7 C7           1.2200    -2.0980    -1.6790 ca         1 9NS      -0.150000
      8 C8           0.5400     2.6260     2.3380 cc         1 9NS      -0.150000
      9 C9           0.1620     4.7560     1.8370 cd         1 9NS       0.085900
     10 C10         -3.5390     1.7680    -1.5940 ca         1 9NS      -0.102600
     11 C11          0.0800    -1.7610     0.8460 ca         1 9NS      -0.099600
     12 C12         -4.0070     0.4610    -1.7800 ca         1 9NS      -0.045300
     13 C13         -0.7220    -2.1330    -0.2350 ca         1 9NS      -0.108300
     14 C14          2.0220    -1.7300    -0.6060 ca         1 9NS       0.071100
     15 C15          1.4420    -1.5640     0.6530 ca         1 9NS       0.047100
     16 C16          0.1060     2.7180     1.0570 cd         1 9NS       0.126300
     17 C18         -4.1520    -1.1900     2.0330 c2         1 9NS      -0.180200
     18 C19         -2.1240     2.1370    -1.2540 c          1 9NS       0.593700
     19 C21          7.6680    -1.1630    -1.4010 c          1 9NS       0.717000
     20 C22          3.4270    -0.5950     1.3790 c6         1 9NS       0.113600
     21 C23          4.1570    -1.4310     0.3470 c6         1 9NS       0.126300
     22 C24         -3.1710    -0.7730    -1.5560 c3         1 9NS       0.191100
     23 C25         -2.1970    -2.3490    -0.0410 c3         1 9NS       0.213100
     24 C26         -0.1080     1.6770     0.0170 c3         1 9NS       0.074700
     25 C27         -4.2800    -1.3080     0.5450 c3         1 9NS       0.192000
     26 C29          5.4890    -0.8280    -0.0520 c3         1 9NS      -0.048400
     27 N30         -1.4960     1.4240    -0.3120 ns         1 9NS      -0.468900
     28 N31         -3.0030    -1.1250    -0.1470 n3         1 9NS      -0.695600
     29 O32         -0.7370    -0.3860     2.5670 o          1 9NS      -0.718500
     30 O33          8.3260    -1.8760    -2.1870 o          1 9NS      -0.750500
     31 O34         -1.6020     3.0890    -1.8240 o          1 9NS      -0.639100
     32 O35         -0.6810    -2.5920     2.9090 o          1 9NS      -0.718500
     33 O36          8.0360    -0.0820    -0.9000 o          1 9NS      -0.750500
     34 O37         -0.1240     4.0150     0.7470 os         1 9NS      -0.232000
     35 O38          2.1920    -1.1940     1.7250 os         1 9NS      -0.311100
     36 O39          3.3450    -1.5440    -0.8210 os         1 9NS      -0.334100
     37 H1          -6.3500     3.5010    -2.4050 ha         1 9NS       0.100000
     38 H2          -7.1800     1.1850    -2.7830 ha         1 9NS       0.096000
     39 H4          -4.0240     3.8530    -1.7040 ha         1 9NS       0.129000
     40 H5          -5.6810    -0.7200    -2.3980 ha         1 9NS       0.102000
     41 H3           0.8760     4.2800     3.8350 ha         1 9NS       0.121000
     42 H8           0.7790     1.7080     2.8470 ha         1 9NS       0.179000
     43 H9           0.0240     5.8210     1.7490 h4         1 9NS       0.026100
     44 H6          -0.7480    -2.5990    -2.3310 ha         1 9NS       0.083000
     45 H7           1.6690    -2.2330    -2.6560 ha         1 9NS       0.111000
     46 H241        -3.6280    -1.6050    -2.1150 h1         1 9NS       0.044700
     47 H242        -2.1750    -0.6330    -1.9820 h1         1 9NS       0.044700
     48 H251        -2.5600    -3.1000    -0.7600 h1         1 9NS       0.043700
     49 H252        -2.3560    -2.7780     0.9470 h1         1 9NS       0.043700
     50 H261         0.4400     1.9300    -0.8930 h1         1 9NS       0.084200
     51 H262         0.3040     0.7500     0.4000 h1         1 9NS       0.084200
     52 H171        -5.7240     0.1900     2.3330 ha         1 9NS       0.148000
     53 H172        -4.8480    -0.3810     3.8500 ha         1 9NS       0.148000
     54 H18         -3.3890    -1.7840     2.5250 ha         1 9NS       0.218000
     55 H271        -4.7250    -2.2820     0.2810 h1         1 9NS       0.023200
     56 H272        -4.9880    -0.5510     0.2080 h1         1 9NS       0.023200
     57 H30         -1.9460     0.6100     0.1120 hn         1 9NS       0.382500
     58 H281         5.7030    -1.8260    -1.9560 hc         1 9NS       0.025200
     59 H282         6.3860    -2.6980    -0.6160 hc         1 9NS       0.025200
     60 H221         4.0160    -0.5250     2.2930 h1         1 9NS       0.056200
     61 H222         3.2640     0.4210     0.9980 h1         1 9NS       0.056200
     62 H23          4.3180    -2.4360     0.7620 h1         1 9NS       0.047700
     63 H291         5.3240     0.1730    -0.4620 hc         1 9NS       0.048700
     64 H292         6.0720    -0.6920     0.8620 hc         1 9NS       0.048700
     65 C17         -4.9450    -0.4230     2.7730 c2         1 9NS      -0.344000
     66 C28          6.2700    -1.6900    -1.0300 c3         1 9NS      -0.203400
     67 C20         -0.4970    -1.5570     2.2390 c          1 9NS       0.727600
@<TRIPOS>BOND
     1     1     2 ar  
     2     1     4 ar  
     3     1    37 1   
     4     2     5 ar  
     5     2    38 1   
     6     3     8 1   
     7     3     9 2   
     8     3    41 1   
     9     4    10 ar  
    10     4    39 1   
    11     5    12 ar  
    12     5    40 1   
    13     6     7 ar  
    14     6    13 ar  
    15     6    44 1   
    16     7    14 ar  
    17     7    45 1   
    18     8    16 2   
    19     8    42 1   
    20     9    34 1   
    21     9    43 1   
    22    10    12 ar  
    23    10    18 1   
    24    11    13 ar  
    25    11    15 ar  
    26    11    67 1   
    27    12    22 1   
    28    13    23 1   
    29    14    15 ar  
    30    14    36 1   
    31    15    35 1   
    32    16    24 1   
    33    16    34 1   
    34    17    25 1   
    35    17    54 1   
    36    17    65 2   
    37    18    27 1   
    38    18    31 2   
    39    19    30 1   
    40    19    33 1   
    41    19    66 1   
    42    20    21 1   
    43    20    35 1   
    44    20    60 1   
    45    20    61 1   
    46    21    26 1   
    47    21    36 1   
    48    21    62 1   
    49    22    28 1   
    50    22    46 1   
    51    22    47 1   
    52    23    28 1   
    53    23    48 1   
    54    23    49 1   
    55    24    27 1   
    56    24    50 1   
    57    24    51 1   
    58    25    28 1   
    59    25    55 1   
    60    25    56 1   
    61    26    63 1   
    62    26    64 1   
    63    26    66 1   
    64    27    57 1   
    65    29    67 1   
    66    32    67 1   
    67    52    65 1   
    68    53    65 1   
    69    58    66 1   
    70    59    66 1   
@<TRIPOS>SUBSTRUCTURE
     1 9NS         1 TEMP              0 ****  ****    0 ROOT
