@<TRIPOS>MOLECULE
9NT
   38    40     1     0     0
SMALL
No Charge or Current Charge


@<TRIPOS>ATOM
      1 C3           4.7420     1.1710    -0.3860 c6         1 9NT       0.101600
      2 N4           3.5220     0.2380    -0.3510 nx         1 9NT      -0.656000
      3 C7           2.1870     1.0130    -0.4980 c3         1 9NT      -0.016400
      4 C8           0.9350     0.1570    -0.7850 c          1 9NT       0.585100
      5 O9           1.0220    -0.9000    -1.4020 o          1 9NT      -0.581100
      6 N10         -0.2470     0.6920    -0.2900 ns         1 9NT      -0.098000
      7 C11         -1.5960     0.2330    -0.3220 ca         1 9NT      -0.067000
      8 C12         -2.5800     1.0630     0.2640 ca         1 9NT      -0.141000
      9 C13         -3.9140     0.6380     0.2480 ca         1 9NT       0.090100
     10 C14         -4.2830    -0.5500    -0.3120 ca         1 9NT       0.063100
     11 C15         -3.3440    -1.4050    -0.8990 ca         1 9NT      -0.072000
     12 C16         -1.9890    -1.0060    -0.9020 ca         1 9NT      -0.115000
     13 O17         -4.9670     1.3150     0.7710 os         1 9NT      -0.335100
     14 C18         -6.1080     0.4450     0.4420 c5         1 9NT       0.372600
     15 O19         -5.6180    -0.7780    -0.2150 os         1 9NT      -0.328100
     16 H3           4.6840     1.7780    -1.2960 hx         1 9NT       0.095450
     17 H1           4.6680     1.8450     0.4740 hx         1 9NT       0.095450
     18 H7A          2.0010     1.5780     0.4180 hx         1 9NT       0.113200
     19 H7           2.2720     1.7160    -1.3290 hx         1 9NT       0.113200
     20 HN10        -0.1320     1.5770     0.1870 hn         1 9NT       0.161000
     21 H12         -2.3180     2.0140     0.7200 ha         1 9NT       0.134000
     22 H4          -3.6530    -2.3500    -1.3380 ha         1 9NT       0.151000
     23 H16         -1.2640    -1.6740    -1.3580 ha         1 9NT       0.149000
     24 H18A        -6.6430     0.1780     1.3610 h2         1 9NT       0.079200
     25 H18         -6.7810     0.9760    -0.2420 h2         1 9NT       0.079200
     26 C1           6.0540     0.3590    -0.3400 c6         1 9NT      -0.103900
     27 C2           6.0950    -0.5600     0.9050 c6         1 9NT      -0.088400
     28 C4           4.8540    -1.4840     0.9490 c6         1 9NT      -0.103900
     29 C6           3.5490    -0.6630     0.8960 c6         1 9NT       0.101600
     30 H2           6.1490    -0.2410    -1.2550 hc         1 9NT       0.086950
     31 H5           6.9110     1.0460    -0.3280 hc         1 9NT       0.086950
     32 H6           7.0130    -1.1640     0.8960 hc         1 9NT       0.078700
     33 H8           6.1330     0.0530     1.8170 hc         1 9NT       0.078700
     34 H9           4.8810    -2.1900     0.1070 hc         1 9NT       0.086950
     35 H10          4.8700    -2.0920     1.8640 hc         1 9NT       0.086950
     36 H11          3.4580    -0.0160     1.7750 hx         1 9NT       0.095450
     37 H13          2.6720    -1.3190     0.8660 hx         1 9NT       0.095450
     38 HN4          3.5890    -0.3970    -1.1840 hn         1 9NT       0.524000
@<TRIPOS>BOND
     1     1     2 1   
     2     1    16 1   
     3     1    17 1   
     4     1    26 1   
     5     2     3 1   
     6     2    29 1   
     7     2    38 1   
     8     3     4 1   
     9     3    18 1   
    10     3    19 1   
    11     4     5 2   
    12     4     6 1   
    13     6     7 1   
    14     6    20 1   
    15     7     8 ar  
    16     7    12 ar  
    17     8     9 ar  
    18     8    21 1   
    19     9    10 ar  
    20     9    13 1   
    21    10    11 ar  
    22    10    15 1   
    23    11    12 ar  
    24    11    22 1   
    25    12    23 1   
    26    13    14 1   
    27    14    15 1   
    28    14    24 1   
    29    14    25 1   
    30    26    27 1   
    31    26    30 1   
    32    26    31 1   
    33    27    28 1   
    34    27    32 1   
    35    27    33 1   
    36    28    29 1   
    37    28    34 1   
    38    28    35 1   
    39    29    36 1   
    40    29    37 1   
@<TRIPOS>SUBSTRUCTURE
     1 9NT         1 TEMP              0 ****  ****    0 ROOT
