@<TRIPOS>MOLECULE
9NT
   38    40     1     0     0
SMALL
abcg2


@<TRIPOS>ATOM
      1 C3           4.6380     1.0880    -0.4950 c6         1 9NT       0.101600
      2 N4           3.3960     0.2830    -0.2690 nx         1 9NT      -0.656000
      3 C7           2.1820     1.1270    -0.3050 c3         1 9NT      -0.016400
      4 C8           0.9700     0.2470    -0.5760 c          1 9NT       0.585100
      5 O9           1.1040    -0.7960    -1.1930 o          1 9NT      -0.581100
      6 N10         -0.1820     0.7550    -0.1140 ns         1 9NT      -0.098000
      7 C11         -1.4890     0.2510    -0.2410 ca         1 9NT      -0.067000
      8 C12         -2.4960     1.0350     0.3540 ca         1 9NT      -0.141000
      9 C13         -3.7830     0.5770     0.2610 ca         1 9NT       0.090100
     10 C14         -4.1010    -0.6050    -0.3870 ca         1 9NT       0.063100
     11 C15         -3.1320    -1.3770    -0.9710 ca         1 9NT      -0.072000
     12 C16         -1.8040    -0.9360    -0.8920 ca         1 9NT      -0.115000
     13 O17         -4.9070     1.1350     0.7610 os         1 9NT      -0.335100
     14 C18         -5.9940     0.3420     0.2960 c5         1 9NT       0.372600
     15 O19         -5.4370    -0.8180    -0.3080 os         1 9NT      -0.328100
     16 H3           4.5120     1.6120    -1.4400 hx         1 9NT       0.095450
     17 H1           4.6880     1.8240     0.3080 hx         1 9NT       0.095450
     18 H7A          2.1170     1.6850     0.6270 hx         1 9NT       0.113200
     19 H7           2.2850     1.8410    -1.1250 hx         1 9NT       0.113200
     20 HN10        -0.1110     1.6190     0.4040 hn         1 9NT       0.161000
     21 H12         -2.2610     1.9600     0.8650 ha         1 9NT       0.134000
     22 H4          -3.3690    -2.3030    -1.4750 ha         1 9NT       0.151000
     23 H16         -1.0360    -1.5390    -1.3450 ha         1 9NT       0.149000
     24 H18A        -6.6250     0.0540     1.1370 h2         1 9NT       0.079200
     25 H18         -6.5720     0.9060    -0.4420 h2         1 9NT       0.079200
     26 C1           5.8620     0.1940    -0.5130 c6         1 9NT      -0.103900
     27 C2           5.9720    -0.6380     0.7570 c6         1 9NT      -0.088400
     28 C4           4.6890    -1.4280     0.9760 c6         1 9NT      -0.103900
     29 C6           3.4850    -0.5090     1.0010 c6         1 9NT       0.101600
     30 H2           5.8220    -0.4590    -1.3910 hc         1 9NT       0.086950
     31 H5           6.7350     0.8360    -0.6390 hc         1 9NT       0.086950
     32 H6           6.8260    -1.3130     0.6920 hc         1 9NT       0.078700
     33 H8           6.1450     0.0190     1.6140 hc         1 9NT       0.078700
     34 H9           4.5620    -2.1780     0.1900 hc         1 9NT       0.086950
     35 H10          4.7120    -1.9660     1.9240 hc         1 9NT       0.086950
     36 H11          3.5580     0.2180     1.8110 hx         1 9NT       0.095450
     37 H13          2.5570    -1.0650     1.1150 hx         1 9NT       0.095450
     38 HN4          3.3070    -0.3840    -1.0440 hn         1 9NT       0.524000
@<TRIPOS>BOND
     1     1     2 1   
     2     1    16 1   
     3     1    17 1   
     4     1    26 1   
     5     2     3 1   
     6     2    29 1   
     7     2    38 1   
     8     3     4 1   
     9     3    18 1   
    10     3    19 1   
    11     4     5 2   
    12     4     6 1   
    13     6     7 1   
    14     6    20 1   
    15     7     8 ar  
    16     7    12 ar  
    17     8     9 ar  
    18     8    21 1   
    19     9    10 ar  
    20     9    13 1   
    21    10    11 ar  
    22    10    15 1   
    23    11    12 ar  
    24    11    22 1   
    25    12    23 1   
    26    13    14 1   
    27    14    15 1   
    28    14    24 1   
    29    14    25 1   
    30    26    27 1   
    31    26    30 1   
    32    26    31 1   
    33    27    28 1   
    34    27    32 1   
    35    27    33 1   
    36    28    29 1   
    37    28    34 1   
    38    28    35 1   
    39    29    36 1   
    40    29    37 1   
@<TRIPOS>SUBSTRUCTURE
     1 9NT         1 TEMP              0 ****  ****    0 ROOT
