@<TRIPOS>MOLECULE
9NU
   83    86     1     0     0
SMALL
abcg2


@<TRIPOS>ATOM
      1 O3           4.4190    15.9730    -0.5160 o          1 9NU      -0.597100
      2 C17          5.5300    15.9730    -1.0480 c          1 9NU       0.603700
      3 C18          6.3810    14.7440    -1.1010 ca         1 9NU      -0.145600
      4 C23          7.7740    14.7990    -1.1980 ca         1 9NU      -0.071500
      5 C22          8.5220    13.6320    -1.2200 ca         1 9NU      -0.099000
      6 C21          7.8970    12.3870    -1.1500 ca         1 9NU      -0.082300
      7 C24          8.7120    11.1150    -1.1910 c3         1 9NU       0.137900
      8 N4           9.7710    11.0980    -0.1960 na         1 9NU       0.109800
      9 N5           9.4680    11.0010     1.1150 nc         1 9NU      -0.517800
     10 C27         10.6390    11.0770     1.7460 cd         1 9NU       0.242900
     11 C26         11.7040    11.2280     0.8390 cd         1 9NU      -0.228000
     12 C25         11.1000    11.2390    -0.4030 cc         1 9NU      -0.169000
     13 C20          6.5090    12.3340    -1.0480 ca         1 9NU      -0.099000
     14 C19          5.7570    13.5000    -1.0190 ca         1 9NU      -0.071500
     15 N3           6.0480    17.0810    -1.6250 ns         1 9NU      -0.508900
     16 C2           5.4130    18.3770    -1.5570 c3         1 9NU       0.026700
     17 C1           6.4950    19.4730    -1.6270 c3         1 9NU       0.170300
     18 O4           7.3450    19.1630    -2.7290 os         1 9NU      -0.506000
     19 C28          7.6450    20.1930    -3.7110 c3         1 9NU       0.189000
     20 C31          6.3850    20.5860    -4.4810 c3         1 9NU      -0.106100
     21 C30          8.2790    21.4120    -3.0420 c3         1 9NU      -0.106100
     22 C29          8.6440    19.5170    -4.6430 c3         1 9NU      -0.106100
     23 C            7.3030    19.5310    -0.3380 c3         1 9NU      -0.106100
     24 C3           4.3270    18.6120    -2.6120 c          1 9NU       0.595100
     25 O            3.5830    19.5850    -2.5030 o          1 9NU      -0.609100
     26 N            4.2680    17.7290    -3.6200 ns         1 9NU      -0.485900
     27 C4           3.2760    17.7690    -4.6660 c5         1 9NU       0.086700
     28 C7           2.1890    16.6990    -4.5060 c5         1 9NU       0.085000
     29 N1           1.6600    16.5670    -5.8670 n          1 9NU      -0.425800
     30 C6           2.6050    17.0740    -6.8720 c5         1 9NU       0.022700
     31 C15          2.9630    16.0760    -7.9680 c          1 9NU       0.599100
     32 N2           2.8060    14.7800    -7.6760 ns         1 9NU      -0.497900
     33 C16          3.1510    13.7210    -8.6070 c3         1 9NU       0.097300
     34 O2           3.4260    16.4800    -9.0370 o          1 9NU      -0.605100
     35 C5           3.8440    17.4760    -6.0560 c5         1 9NU      -0.093400
     36 C8           0.3600    16.3990    -6.2200 c          1 9NU       0.606700
     37 O1          -0.0190    16.6110    -7.3740 o          1 9NU      -0.581100
     38 C9          -0.5950    15.9150    -5.1780 ca         1 9NU      -0.145600
     39 C14         -0.2850    14.8470    -4.3360 ca         1 9NU      -0.072500
     40 C13         -1.2270    14.3800    -3.4260 ca         1 9NU      -0.115500
     41 C12         -2.4750    14.9880    -3.3410 ca         1 9NU      -0.088000
     42 C11         -2.7880    16.0540    -4.1800 ca         1 9NU      -0.115500
     43 C10         -1.8570    16.5080    -5.1040 ca         1 9NU      -0.072500
     44 H3           6.9240    17.0330    -2.1230 hn         1 9NU       0.338500
     45 H23          8.2880    15.7510    -1.2300 ha         1 9NU       0.128000
     46 H19          4.6800    13.4540    -0.9320 ha         1 9NU       0.128000
     47 H22          9.6010    13.6910    -1.2820 ha         1 9NU       0.121500
     48 H241         8.0690    10.2500    -1.0290 h1         1 9NU       0.069700
     49 H242         9.1930    11.0020    -2.1630 h1         1 9NU       0.069700
     50 H20          6.0140    11.3720    -0.9850 ha         1 9NU       0.121500
     51 H25         11.5030    11.3350    -1.3970 h4         1 9NU       0.150000
     52 H27         10.6760    11.0140     2.8230 h4         1 9NU       0.038100
     53 H26         12.7560    11.3100     1.0540 ha         1 9NU       0.146000
     54 H2           4.8980    18.4620    -0.6010 h1         1 9NU       0.105700
     55 H1           5.9810    20.4210    -1.7840 h1         1 9NU       0.070700
     56 HC1          8.0610    20.3100    -0.4030 hc         1 9NU       0.046700
     57 HC2          6.6510    19.7490     0.5100 hc         1 9NU       0.046700
     58 HC3          7.8020    18.5780    -0.1560 hc         1 9NU       0.046700
     59 H311         6.6410    21.3070    -5.2590 hc         1 9NU       0.045700
     60 H312         5.9410    19.7090    -4.9550 hc         1 9NU       0.045700
     61 H313         5.6400    21.0470    -3.8330 hc         1 9NU       0.045700
     62 H301         8.5580    22.1420    -3.8030 hc         1 9NU       0.045700
     63 H302         7.5860    21.8980    -2.3530 hc         1 9NU       0.045700
     64 H303         9.1760    21.1250    -2.4920 hc         1 9NU       0.045700
     65 H291         8.9430    20.2030    -5.4370 hc         1 9NU       0.045700
     66 H292         9.5350    19.2150    -4.0900 hc         1 9NU       0.045700
     67 H293         8.1970    18.6310    -5.0980 hc         1 9NU       0.045700
     68 H            4.9060    16.9460    -3.5990 hn         1 9NU       0.321500
     69 H4           2.8180    18.7570    -4.6440 h1         1 9NU       0.098700
     70 H71C         2.6390    15.7630    -4.1640 h1         1 9NU       0.062700
     71 H72C         1.4110    16.9910    -3.8060 h1         1 9NU       0.062700
     72 H51C         4.3600    18.3270    -6.4930 hc         1 9NU       0.066700
     73 H52C         4.5450    16.6400    -5.9920 hc         1 9NU       0.066700
     74 H6           2.1690    17.9380    -7.3740 h1         1 9NU       0.099700
     75 HA           2.4080    14.5330    -6.7840 hn         1 9NU       0.321500
     76 H161         2.9000    12.7670    -8.1510 h1         1 9NU       0.041367
     77 H162         2.5950    13.8280    -9.5400 h1         1 9NU       0.041367
     78 H163         4.2180    13.7370    -8.8380 h1         1 9NU       0.041367
     79 H14          0.6820    14.3670    -4.4020 ha         1 9NU       0.121000
     80 H10         -2.0990    17.3260    -5.7700 ha         1 9NU       0.121000
     81 H13         -0.9850    13.5420    -2.7850 ha         1 9NU       0.118500
     82 H12         -3.2040    14.6300    -2.6240 ha         1 9NU       0.117000
     83 H11         -3.7590    16.5290    -4.1160 ha         1 9NU       0.118500
@<TRIPOS>BOND
     1     1     2 2   
     2     2     3 1   
     3     2    15 1   
     4     3     4 ar  
     5     3    14 ar  
     6     4     5 ar  
     7     4    45 1   
     8     5     6 ar  
     9     5    47 1   
    10     6     7 1   
    11     6    13 ar  
    12     7     8 1   
    13     7    48 1   
    14     7    49 1   
    15     8     9 1   
    16     8    12 1   
    17     9    10 2   
    18    10    11 1   
    19    10    52 1   
    20    11    12 2   
    21    11    53 1   
    22    12    51 1   
    23    13    14 ar  
    24    13    50 1   
    25    14    46 1   
    26    15    16 1   
    27    15    44 1   
    28    16    17 1   
    29    16    24 1   
    30    16    54 1   
    31    17    18 1   
    32    17    23 1   
    33    17    55 1   
    34    18    19 1   
    35    19    20 1   
    36    19    21 1   
    37    19    22 1   
    38    20    59 1   
    39    20    60 1   
    40    20    61 1   
    41    21    62 1   
    42    21    63 1   
    43    21    64 1   
    44    22    65 1   
    45    22    66 1   
    46    22    67 1   
    47    23    56 1   
    48    23    57 1   
    49    23    58 1   
    50    24    25 2   
    51    24    26 1   
    52    26    27 1   
    53    26    68 1   
    54    27    28 1   
    55    27    35 1   
    56    27    69 1   
    57    28    29 1   
    58    28    70 1   
    59    28    71 1   
    60    29    30 1   
    61    29    36 1   
    62    30    31 1   
    63    30    35 1   
    64    30    74 1   
    65    31    32 1   
    66    31    34 2   
    67    32    33 1   
    68    32    75 1   
    69    33    76 1   
    70    33    77 1   
    71    33    78 1   
    72    35    72 1   
    73    35    73 1   
    74    36    37 2   
    75    36    38 1   
    76    38    39 ar  
    77    38    43 ar  
    78    39    40 ar  
    79    39    79 1   
    80    40    41 ar  
    81    40    81 1   
    82    41    42 ar  
    83    41    82 1   
    84    42    43 ar  
    85    42    83 1   
    86    43    80 1   
@<TRIPOS>SUBSTRUCTURE
     1 9NU         1 TEMP              0 ****  ****    0 ROOT
