@<TRIPOS>MOLECULE
9NU
   83    86     1     0     0
SMALL
No Charge or Current Charge


@<TRIPOS>ATOM
      1 O3           4.4590    16.1470    -1.5960 o          1 9NU      -0.597100
      2 C17          5.6100    16.3100    -1.9740 c          1 9NU       0.603700
      3 C18          6.5990    15.1670    -2.0760 ca         1 9NU      -0.145600
      4 C23          7.9310    15.3550    -2.5180 ca         1 9NU      -0.071500
      5 C22          8.8180    14.2670    -2.6000 ca         1 9NU      -0.099000
      6 C21          8.4010    12.9720    -2.2420 ca         1 9NU      -0.082300
      7 C24          9.3720    11.7960    -2.3360 c3         1 9NU       0.137900
      8 N4           9.4320    10.9730    -1.1120 na         1 9NU       0.109800
      9 N5           8.8350     9.7250    -1.0750 nc         1 9NU      -0.517800
     10 C27          9.0970     9.3080     0.1500 cd         1 9NU       0.242900
     11 C26          9.8430    10.2480     0.8860 cd         1 9NU      -0.228000
     12 C25         10.0650    11.3240     0.0780 cc         1 9NU      -0.169000
     13 C20          7.0770    12.7790    -1.8050 ca         1 9NU      -0.099000
     14 C19          6.1880    13.8630    -1.7210 ca         1 9NU      -0.071500
     15 N3           6.0630    17.5590    -2.3400 ns         1 9NU      -0.508900
     16 C2           5.2960    18.8200    -2.1500 c3         1 9NU       0.026700
     17 C1           6.2260    20.0730    -2.2570 c3         1 9NU       0.170300
     18 O4           7.5790    19.6740    -1.7550 os         1 9NU      -0.506000
     19 C28          8.7720    20.1590    -2.4240 c3         1 9NU       0.189000
     20 C31          8.8010    19.6050    -3.8720 c3         1 9NU      -0.106100
     21 C30          8.8130    21.7050    -2.3950 c3         1 9NU      -0.106100
     22 C29          9.9430    19.5740    -1.6050 c3         1 9NU      -0.106100
     23 C            5.6350    21.3000    -1.4590 c3         1 9NU      -0.106100
     24 C3           4.0760    18.9180    -3.1270 c          1 9NU       0.595100
     25 O            3.1040    19.6250    -2.8940 o          1 9NU      -0.609100
     26 N            4.1470    18.1080    -4.2480 ns         1 9NU      -0.485900
     27 C4           2.9830    18.0300    -5.1390 c5         1 9NU       0.086700
     28 C7           2.0130    16.9950    -4.5060 c5         1 9NU       0.085000
     29 N1           1.3920    16.3810    -5.7090 n          1 9NU      -0.425800
     30 C6           2.1130    16.7780    -6.9650 c5         1 9NU       0.022700
     31 C15          2.4000    15.6570    -8.0200 c          1 9NU       0.599100
     32 N2           2.1920    14.4100    -7.4710 ns         1 9NU      -0.497900
     33 C16          2.3560    13.1480    -8.1930 c3         1 9NU       0.097300
     34 O2           2.7320    15.8210    -9.1860 o          1 9NU      -0.605100
     35 C5           3.4730    17.2760    -6.3960 c5         1 9NU      -0.093400
     36 C8           0.0250    16.0210    -5.7320 c          1 9NU       0.606700
     37 O1          -0.6090    16.0810    -6.7770 o          1 9NU      -0.581100
     38 C9          -0.6110    15.4720    -4.4710 ca         1 9NU      -0.145600
     39 C14          0.1290    14.7400    -3.5130 ca         1 9NU      -0.072500
     40 C13         -0.4970    14.2350    -2.3600 ca         1 9NU      -0.115500
     41 C12         -1.8690    14.4430    -2.1520 ca         1 9NU      -0.088000
     42 C11         -2.6200    15.1470    -3.1070 ca         1 9NU      -0.115500
     43 C10         -1.9970    15.6510    -4.2620 ca         1 9NU      -0.072500
     44 H3           7.0510    17.6480    -2.5390 hn         1 9NU       0.338500
     45 H23          8.3010    16.3360    -2.8020 ha         1 9NU       0.128000
     46 H19          5.1710    13.6820    -1.3780 ha         1 9NU       0.128000
     47 H22          9.8370    14.4360    -2.9430 ha         1 9NU       0.121500
     48 H241         9.0770    11.1570    -3.1770 h1         1 9NU       0.069700
     49 H242        10.3830    12.1650    -2.5450 h1         1 9NU       0.069700
     50 H20          6.7330    11.7840    -1.5280 ha         1 9NU       0.121500
     51 H25         10.5850    12.2620     0.2310 h4         1 9NU       0.150000
     52 H27          8.7400     8.3370     0.4710 h4         1 9NU       0.038100
     53 H26         10.1780    10.1320     1.9120 ha         1 9NU       0.146000
     54 H2           4.8720    18.7960    -1.1380 h1         1 9NU       0.105700
     55 H1           6.2480    20.3570    -3.3230 h1         1 9NU       0.070700
     56 HC1          6.2280    22.2060    -1.6130 hc         1 9NU       0.046700
     57 HC2          4.6130    21.5230    -1.7820 hc         1 9NU       0.046700
     58 HC3          5.6140    21.0830    -0.3840 hc         1 9NU       0.046700
     59 H311         9.7810    19.7860    -4.3280 hc         1 9NU       0.045700
     60 H312         8.6210    18.5240    -3.8850 hc         1 9NU       0.045700
     61 H313         8.0540    20.0880    -4.5110 hc         1 9NU       0.045700
     62 H301         9.7890    22.0670    -2.7400 hc         1 9NU       0.045700
     63 H302         8.0540    22.1380    -3.0560 hc         1 9NU       0.045700
     64 H303         8.6550    22.0810    -1.3770 hc         1 9NU       0.045700
     65 H291        10.9070    19.8790    -2.0290 hc         1 9NU       0.045700
     66 H292         9.9030    19.9230    -0.5660 hc         1 9NU       0.045700
     67 H293         9.9070    18.4780    -1.5980 hc         1 9NU       0.045700
     68 H            4.9810    17.5410    -4.3480 hn         1 9NU       0.321500
     69 H4           2.5030    18.9920    -5.3720 h1         1 9NU       0.098700
     70 H71C         2.5580    16.2400    -3.9240 h1         1 9NU       0.062700
     71 H72C         1.2770    17.4780    -3.8490 h1         1 9NU       0.062700
     72 H51C         4.0140    17.9230    -7.0970 hc         1 9NU       0.066700
     73 H52C         4.1290    16.4330    -6.1460 hc         1 9NU       0.066700
     74 H6           1.5760    17.5860    -7.4800 h1         1 9NU       0.099700
     75 HA           1.9140    14.3900    -6.4970 hn         1 9NU       0.321500
     76 H161         2.1340    12.3090    -7.5210 h1         1 9NU       0.041367
     77 H162         1.6680    13.1190    -9.0480 h1         1 9NU       0.041367
     78 H163         3.3890    13.0600    -8.5530 h1         1 9NU       0.041367
     79 H14          1.1840    14.5310    -3.6660 ha         1 9NU       0.121000
     80 H10         -2.5930    16.1950    -4.9920 ha         1 9NU       0.121000
     81 H13          0.0830    13.6740    -1.6300 ha         1 9NU       0.118500
     82 H12         -2.3520    14.0510    -1.2590 ha         1 9NU       0.117000
     83 H11         -3.6850    15.3020    -2.9530 ha         1 9NU       0.118500
@<TRIPOS>BOND
     1     1     2 2   
     2     2     3 1   
     3     2    15 1   
     4     3     4 ar  
     5     3    14 ar  
     6     4     5 ar  
     7     4    45 1   
     8     5     6 ar  
     9     5    47 1   
    10     6     7 1   
    11     6    13 ar  
    12     7     8 1   
    13     7    48 1   
    14     7    49 1   
    15     8     9 1   
    16     8    12 1   
    17     9    10 2   
    18    10    11 1   
    19    10    52 1   
    20    11    12 2   
    21    11    53 1   
    22    12    51 1   
    23    13    14 ar  
    24    13    50 1   
    25    14    46 1   
    26    15    16 1   
    27    15    44 1   
    28    16    17 1   
    29    16    24 1   
    30    16    54 1   
    31    17    18 1   
    32    17    23 1   
    33    17    55 1   
    34    18    19 1   
    35    19    20 1   
    36    19    21 1   
    37    19    22 1   
    38    20    59 1   
    39    20    60 1   
    40    20    61 1   
    41    21    62 1   
    42    21    63 1   
    43    21    64 1   
    44    22    65 1   
    45    22    66 1   
    46    22    67 1   
    47    23    56 1   
    48    23    57 1   
    49    23    58 1   
    50    24    25 2   
    51    24    26 1   
    52    26    27 1   
    53    26    68 1   
    54    27    28 1   
    55    27    35 1   
    56    27    69 1   
    57    28    29 1   
    58    28    70 1   
    59    28    71 1   
    60    29    30 1   
    61    29    36 1   
    62    30    31 1   
    63    30    35 1   
    64    30    74 1   
    65    31    32 1   
    66    31    34 2   
    67    32    33 1   
    68    32    75 1   
    69    33    76 1   
    70    33    77 1   
    71    33    78 1   
    72    35    72 1   
    73    35    73 1   
    74    36    37 2   
    75    36    38 1   
    76    38    39 ar  
    77    38    43 ar  
    78    39    40 ar  
    79    39    79 1   
    80    40    41 ar  
    81    40    81 1   
    82    41    42 ar  
    83    41    82 1   
    84    42    43 ar  
    85    42    83 1   
    86    43    80 1   
@<TRIPOS>SUBSTRUCTURE
     1 9NU         1 TEMP              0 ****  ****    0 ROOT
