@<TRIPOS>MOLECULE
9NW
   47    49     1     0     0
SMALL
bcc


@<TRIPOS>ATOM
      1 C10          8.3210    47.2970    21.3560 cc         1 9NW       0.145300
      2 N12          9.1820    48.8150    20.2420 na         1 9NW       0.173900
      3 C20          5.7710    48.1460    19.3100 ca         1 9NW       0.102400
      4 C21          5.9760    45.7860    18.8780 ca         1 9NW      -0.022000
      5 C22          6.4810    46.0770    17.6230 ca         1 9NW       0.002400
      6 C24          6.2860    48.4210    18.0540 ca         1 9NW      -0.136000
      7 C01         11.0250    41.7660    17.9410 c6         1 9NW      -0.073900
      8 C02         12.2930    41.2570    18.6150 c6         1 9NW      -0.075400
      9 C03         12.2290    41.4700    20.1230 c6         1 9NW      -0.073900
     10 C04         11.9530    42.9310    20.4620 c6         1 9NW      -0.075900
     11 C05         10.6720    43.4320    19.8020 c6         1 9NW       0.173500
     12 C06         10.7540    43.2270    18.2900 c6         1 9NW      -0.075900
     13 C08          9.1440    45.3260    19.8360 c3         1 9NW       0.132500
     14 C09          8.9860    46.7490    20.2490 cc         1 9NW       0.224300
     15 N11          9.5220    47.7520    19.5670 nd         1 9NW      -0.469800
     16 N13          8.4740    48.6140    21.3170 nd         1 9NW      -0.492800
     17 C14          7.5160    46.6390    22.4300 c3         1 9NW       0.189500
     18 N15          6.1100    47.0350    22.4420 n7         1 9NW      -0.821100
     19 S16          5.0540    46.3990    21.3680 sy         1 9NW       1.306200
     20 O17          3.7800    47.0500    21.5950 o          1 9NW      -0.597800
     21 O18          5.1670    44.9540    21.4650 o          1 9NW      -0.597800
     22 C19          5.6320    46.8260    19.7310 ca         1 9NW      -0.277500
     23 C23          6.6460    47.3870    17.2070 ca         1 9NW      -0.059000
     24 CL26         6.9410    44.7820    16.5790 cl         1 9NW      -0.089400
     25 H1           9.4560    49.7420    19.9520 hn         1 9NW       0.354700
     26 H2           5.8640    44.7590    19.1950 ha         1 9NW       0.180000
     27 H3           6.4090    49.4450    17.7330 ha         1 9NW       0.153000
     28 H011        11.0980    41.6520    16.8570 hc         1 9NW       0.039700
     29 H022        12.4480    40.1990    18.3870 hc         1 9NW       0.040200
     30 H021        13.1590    41.7940    18.2110 hc         1 9NW       0.040200
     31 H032        11.4350    40.8440    20.5440 hc         1 9NW       0.039700
     32 H031        13.1600    41.1490    20.5960 hc         1 9NW       0.039700
     33 H042        12.7890    43.5520    20.1200 hc         1 9NW       0.046700
     34 H041        11.8840    43.0600    21.5470 hc         1 9NW       0.046700
     35 H051         9.8340    42.8160    20.1800 h1         1 9NW       0.020700
     36 H062        11.5600    43.8590    17.9000 hc         1 9NW       0.046700
     37 H061         9.8330    43.5510    17.7980 hc         1 9NW       0.046700
     38 H6           8.9740    45.2580    18.7610 h1         1 9NW       0.049700
     39 H7           8.3530    44.7220    20.3080 h1         1 9NW       0.049700
     40 H8           7.5780    45.5550    22.3520 h1         1 9NW       0.084200
     41 H9           7.9120    46.8990    23.4120 h1         1 9NW       0.084200
     42 H10          5.9420    48.0120    22.6480 hn         1 9NW       0.447800
     43 H11          7.0520    47.6110    16.2300 ha         1 9NW       0.157000
     44 CL25         5.3420    49.4690    20.3240 cl         1 9NW      -0.075400
     45 N07         10.4770    44.8370    20.1390 n7         1 9NW      -0.797200
     46 H012        10.1740    41.1540    18.2590 hc         1 9NW       0.039700
     47 H4          10.6350    44.9490    21.1350 hn         1 9NW       0.353800
@<TRIPOS>BOND
     1     1    14 1   
     2     1    16 2   
     3     1    17 1   
     4     2    15 1   
     5     2    16 1   
     6     2    25 1   
     7     3     6 ar  
     8     3    22 ar  
     9     3    44 1   
    10     4     5 ar  
    11     4    22 ar  
    12     4    26 1   
    13     5    23 ar  
    14     5    24 1   
    15     6    23 ar  
    16     6    27 1   
    17     7     8 1   
    18     7    12 1   
    19     7    28 1   
    20     7    46 1   
    21     8     9 1   
    22     8    29 1   
    23     8    30 1   
    24     9    10 1   
    25     9    31 1   
    26     9    32 1   
    27    10    11 1   
    28    10    33 1   
    29    10    34 1   
    30    11    12 1   
    31    11    35 1   
    32    11    45 1   
    33    12    36 1   
    34    12    37 1   
    35    13    14 1   
    36    13    38 1   
    37    13    39 1   
    38    13    45 1   
    39    14    15 2   
    40    17    18 1   
    41    17    40 1   
    42    17    41 1   
    43    18    19 1   
    44    18    42 1   
    45    19    20 2   
    46    19    21 2   
    47    19    22 1   
    48    23    43 1   
    49    45    47 1   
@<TRIPOS>SUBSTRUCTURE
     1 9NW         1 TEMP              0 ****  ****    0 ROOT
