@<TRIPOS>MOLECULE
9NW
   47    49     1     0     0
SMALL
No Charge or Current Charge


@<TRIPOS>ATOM
      1 C10          8.4620    47.2460    20.8610 cc         1 9NW       0.145300
      2 N12          8.9980    48.7880    19.5550 na         1 9NW       0.123600
      3 C20          5.2290    48.4180    19.8160 ca         1 9NW       0.194000
      4 C21          5.9180    46.4020    18.6260 ca         1 9NW      -0.004000
      5 C22          6.0720    47.1480    17.4480 ca         1 9NW       0.094000
      6 C24          5.3810    49.1550    18.6280 ca         1 9NW      -0.118000
      7 C01         11.3350    41.3320    18.2330 c6         1 9NW      -0.073900
      8 C02         12.5220    40.9180    19.1350 c6         1 9NW      -0.075400
      9 C03         12.2560    41.2940    20.6120 c6         1 9NW      -0.073900
     10 C04         11.9400    42.8040    20.7560 c6         1 9NW      -0.075900
     11 C05         10.7430    43.2250    19.8630 c6         1 9NW       0.173500
     12 C06         11.0130    42.8410    18.3800 c6         1 9NW      -0.075900
     13 C08          9.2310    45.2160    19.4330 c3         1 9NW       0.132500
     14 C09          9.0450    46.7000    19.7000 cc         1 9NW       0.224300
     15 N11          9.3910    47.6480    18.8560 nd         1 9NW      -0.469800
     16 N13          8.4200    48.5600    20.8030 nd         1 9NW      -0.492800
     17 C14          7.9430    46.4490    22.0450 c3         1 9NW       0.189500
     18 N15          6.5050    46.7040    22.3230 n7         1 9NW      -0.876300
     19 S16          5.3480    46.0380    21.3140 sy         1 9NW       1.164600
     20 O17          4.0710    46.3070    21.9780 o          1 9NW      -0.527000
     21 O18          5.7890    44.6680    21.0440 o          1 9NW      -0.527000
     22 C19          5.5050    47.0310    19.8250 ca         1 9NW      -0.277500
     23 C23          5.8050    48.5250    17.4450 ca         1 9NW      -0.041000
     24 Cl26         6.6090    46.3540    15.9720 cl         1 9NW      -0.181000
     25 H1           9.1310    49.7300    19.1790 hn         1 9NW       0.405000
     26 H2           6.1270    45.3340    18.5970 ha         1 9NW       0.162000
     27 H3           5.1760    50.2220    18.6270 ha         1 9NW       0.135000
     28 H011        11.5650    41.1010    17.1840 hc         1 9NW       0.039700
     29 H022        12.6960    39.8370    19.0500 hc         1 9NW       0.040200
     30 H021        13.4410    41.4110    18.7870 hc         1 9NW       0.040200
     31 H032        11.4150    40.7010    21.0000 hc         1 9NW       0.039700
     32 H031        13.1290    41.0350    21.2260 hc         1 9NW       0.039700
     33 H042        12.8290    43.3910    20.4890 hc         1 9NW       0.046700
     34 H041        11.7200    43.0310    21.8090 hc         1 9NW       0.046700
     35 H051         9.8540    42.6760    20.2100 h1         1 9NW       0.020700
     36 H062        11.8500    43.4360    17.9890 hc         1 9NW       0.046700
     37 H061        10.1410    43.0800    17.7580 hc         1 9NW       0.046700
     38 H6           9.2300    45.0720    18.3440 h1         1 9NW       0.049700
     39 H7           8.3580    44.6740    19.8190 h1         1 9NW       0.049700
     40 H8           8.1410    45.3770    21.9130 h1         1 9NW       0.084200
     41 H9           8.5390    46.7590    22.9140 h1         1 9NW       0.084200
     42 H10          6.3390    47.7010    22.1880 hn         1 9NW       0.503000
     43 H11          5.9250    49.1010    16.5310 ha         1 9NW       0.139000
     44 Cl25         4.7280    49.2960    21.2610 cl         1 9NW      -0.167000
     45 N07         10.4850    44.6710    20.0240 n7         1 9NW      -0.852400
     46 H012        10.4470    40.7390    18.4940 hc         1 9NW       0.039700
     47 H4          10.4860    44.8780    21.0300 hn         1 9NW       0.409000
@<TRIPOS>BOND
     1     1    14 1   
     2     1    16 2   
     3     1    17 1   
     4     2    15 1   
     5     2    16 1   
     6     2    25 1   
     7     3     6 ar  
     8     3    22 ar  
     9     3    44 1   
    10     4     5 ar  
    11     4    22 ar  
    12     4    26 1   
    13     5    23 ar  
    14     5    24 1   
    15     6    23 ar  
    16     6    27 1   
    17     7     8 1   
    18     7    12 1   
    19     7    28 1   
    20     7    46 1   
    21     8     9 1   
    22     8    29 1   
    23     8    30 1   
    24     9    10 1   
    25     9    31 1   
    26     9    32 1   
    27    10    11 1   
    28    10    33 1   
    29    10    34 1   
    30    11    12 1   
    31    11    35 1   
    32    11    45 1   
    33    12    36 1   
    34    12    37 1   
    35    13    14 1   
    36    13    38 1   
    37    13    39 1   
    38    13    45 1   
    39    14    15 2   
    40    17    18 1   
    41    17    40 1   
    42    17    41 1   
    43    18    19 1   
    44    18    42 1   
    45    19    20 2   
    46    19    21 2   
    47    19    22 1   
    48    23    43 1   
    49    45    47 1   
@<TRIPOS>SUBSTRUCTURE
     1 9NW         1 TEMP              0 ****  ****    0 ROOT
