@<TRIPOS>MOLECULE
9NX
   40    42     1     0     0
SMALL
abcg2


@<TRIPOS>ATOM
      1 C1           0.2650     7.5990    21.9580 ca         1 9NX       0.138100
      2 C2          -0.2690     7.0950    23.1350 ca         1 9NX      -0.170000
      3 C3          -0.6210     7.9570    24.1640 ca         1 9NX       0.027100
      4 C4          -0.4430     9.3360    24.0480 ca         1 9NX      -0.132900
      5 C5           0.1050     9.8300    22.8470 ca         1 9NX      -0.130000
      6 C6           0.4540     8.9930    21.8080 ca         1 9NX       0.117100
      7 C11         -0.8170    10.2550    25.1060 ce         1 9NX       0.454800
      8 C14         -0.7320    12.0870    27.4420 cc         1 9NX       0.475800
      9 BR9         -1.3450     7.1630    25.7510 br         1 9NX      -0.091100
     10 O8           0.9710     9.3950    20.6250 os         1 9NX      -0.323100
     11 O7           0.6240     6.8120    20.9210 oh         1 9NX      -0.506100
     12 N12         -0.5700    11.5090    25.0130 n2         1 9NX      -0.486100
     13 N14         -0.9450    12.2870    26.0920 na         1 9NX      -0.135600
     14 C17         -1.3850    13.5870    25.9760 cc         1 9NX       0.489000
     15 N16         -1.4590    14.1220    27.1730 nd         1 9NX      -0.355000
     16 N15         -1.0430    13.1830    28.0950 nd         1 9NX      -0.358000
     17 C20          0.4970    11.2490    29.7220 c3         1 9NX       0.044900
     18 C18         -1.7280    14.2570    24.7230 ca         1 9NX      -0.128500
     19 C25         -2.2990    13.5700    23.6450 ca         1 9NX      -0.073000
     20 C24         -2.6340    14.2520    22.4820 ca         1 9NX      -0.119000
     21 C23         -2.4090    15.6210    22.3800 ca         1 9NX      -0.095000
     22 C22         -1.8470    16.3100    23.4510 ca         1 9NX      -0.119000
     23 C21         -1.5070    15.6350    24.6140 ca         1 9NX      -0.073000
     24 H1          -0.4070     6.0270    23.2380 ha         1 9NX       0.136000
     25 H3           0.2390    10.8960    22.7590 ha         1 9NX       0.146000
     26 H4           1.5620    10.8980    19.4160 h1         1 9NX       0.048033
     27 H5           0.2050    11.3300    20.4900 h1         1 9NX       0.048033
     28 H6           1.8610    11.2080    21.1460 h1         1 9NX       0.048033
     29 H7          -1.3420     9.8400    25.9620 h4         1 9NX       0.028800
     30 H8           0.9720    10.3960    30.2050 h1         1 9NX       0.076367
     31 H9           1.2170    12.0510    29.5820 h1         1 9NX       0.076367
     32 H10         -0.3480    11.5890    30.3140 h1         1 9NX       0.076367
     33 H11         -2.4910    12.5100    23.7190 ha         1 9NX       0.125000
     34 H12         -3.0780    13.7110    21.6560 ha         1 9NX       0.116000
     35 H13         -2.6700    16.1480    21.4710 ha         1 9NX       0.114000
     36 H14         -1.6660    17.3750    23.3770 ha         1 9NX       0.116000
     37 H15         -1.0590    16.1660    25.4430 ha         1 9NX       0.125000
     38 H2           0.4510     5.8830    21.1300 ho         1 9NX       0.467000
     39 S19         -0.0660    10.6200    28.1150 ss         1 9NX      -0.344300
     40 C10          1.1570    10.7980    20.4190 c3         1 9NX       0.142900
@<TRIPOS>BOND
     1     1     2 ar  
     2     1     6 ar  
     3     1    11 1   
     4     2     3 ar  
     5     2    24 1   
     6     3     4 ar  
     7     3     9 1   
     8     4     5 ar  
     9     4     7 1   
    10     5     6 ar  
    11     5    25 1   
    12     6    10 1   
    13     7    12 2   
    14     7    29 1   
    15     8    13 1   
    16     8    16 2   
    17     8    39 1   
    18    10    40 1   
    19    11    38 1   
    20    12    13 1   
    21    13    14 1   
    22    14    15 2   
    23    14    18 1   
    24    15    16 1   
    25    17    30 1   
    26    17    31 1   
    27    17    32 1   
    28    17    39 1   
    29    18    19 ar  
    30    18    23 ar  
    31    19    20 ar  
    32    19    33 1   
    33    20    21 ar  
    34    20    34 1   
    35    21    22 ar  
    36    21    35 1   
    37    22    23 ar  
    38    22    36 1   
    39    23    37 1   
    40    26    40 1   
    41    27    40 1   
    42    28    40 1   
@<TRIPOS>SUBSTRUCTURE
     1 9NX         1 TEMP              0 ****  ****    0 ROOT
