@<TRIPOS>MOLECULE
9NX
   40    42     1     0     0
SMALL
No Charge or Current Charge


@<TRIPOS>ATOM
      1 C1           0.4750     7.4640    22.0250 ca         1 9NX       0.138100
      2 C2          -0.0610     6.9550    23.2180 ca         1 9NX      -0.170000
      3 C3          -0.5580     7.8230    24.2040 ca         1 9NX       0.027100
      4 C4          -0.5310     9.2240    24.0080 ca         1 9NX      -0.132900
      5 C5           0.0220     9.7310    22.8060 ca         1 9NX      -0.130000
      6 C6           0.5220     8.8610    21.8100 ca         1 9NX       0.117100
      7 C11         -1.0490    10.1580    25.0620 ce         1 9NX       0.454800
      8 C14         -0.6760    12.1210    27.3520 cc         1 9NX       0.475800
      9 Br9         -1.2480     7.0360    25.8140 br         1 9NX      -0.091100
     10 O8           1.0610     9.3360    20.6240 os         1 9NX      -0.323100
     11 O7           0.9530     6.5920    21.0800 oh         1 9NX      -0.506100
     12 N12         -0.8740    11.4440    24.9740 n2         1 9NX      -0.486100
     13 N14         -1.1150    12.3070    26.0570 na         1 9NX      -0.135600
     14 C17         -1.2920    13.6760    25.9230 cc         1 9NX       0.489000
     15 N16         -1.0480    14.2450    27.1070 nd         1 9NX      -0.355000
     16 N15         -0.6510    13.2680    28.0040 nd         1 9NX      -0.358000
     17 C20          0.4270    11.0670    29.7280 c3         1 9NX       0.044900
     18 C18         -1.6970    14.4060    24.7060 ca         1 9NX      -0.128500
     19 C25         -2.4570    13.7890    23.6840 ca         1 9NX      -0.073000
     20 C24         -2.8680    14.5190    22.5550 ca         1 9NX      -0.119000
     21 C23         -2.5440    15.8790    22.4370 ca         1 9NX      -0.095000
     22 C22         -1.8190    16.5130    23.4570 ca         1 9NX      -0.119000
     23 C21         -1.4070    15.7860    24.5870 ca         1 9NX      -0.073000
     24 H1          -0.0930     5.8820    23.3910 ha         1 9NX       0.136000
     25 H3           0.0520    10.8060    22.6530 ha         1 9NX       0.146000
     26 H4           1.6050    10.8860    19.3320 h1         1 9NX       0.048033
     27 H5           0.1510    11.1990    20.3010 h1         1 9NX       0.048033
     28 H6           1.7650    11.2640    21.0590 h1         1 9NX       0.048033
     29 H7          -1.6630     9.7350    25.8580 h4         1 9NX       0.028800
     30 H8           0.8270    10.1890    30.2520 h1         1 9NX       0.076367
     31 H9           1.1990    11.8470    29.6990 h1         1 9NX       0.076367
     32 H10         -0.4460    11.4430    30.2750 h1         1 9NX       0.076367
     33 H11         -2.7490    12.7450    23.7610 ha         1 9NX       0.125000
     34 H12         -3.4460    14.0290    21.7740 ha         1 9NX       0.116000
     35 H13         -2.8640    16.4430    21.5630 ha         1 9NX       0.114000
     36 H14         -1.5760    17.5700    23.3740 ha         1 9NX       0.116000
     37 H15         -0.8490    16.2990    25.3680 ha         1 9NX       0.125000
     38 H2           0.8350     5.6760    21.4080 ho         1 9NX       0.467000
     39 S19         -0.0610    10.5960    28.0050 ss         1 9NX      -0.344300
     40 C10          1.1480    10.7400    20.3180 c3         1 9NX       0.142900
@<TRIPOS>BOND
     1     1     2 ar  
     2     1     6 ar  
     3     1    11 1   
     4     2     3 ar  
     5     2    24 1   
     6     3     4 ar  
     7     3     9 1   
     8     4     5 ar  
     9     4     7 1   
    10     5     6 ar  
    11     5    25 1   
    12     6    10 1   
    13     7    12 2   
    14     7    29 1   
    15     8    13 1   
    16     8    16 2   
    17     8    39 1   
    18    10    40 1   
    19    11    38 1   
    20    12    13 1   
    21    13    14 1   
    22    14    15 2   
    23    14    18 1   
    24    15    16 1   
    25    17    30 1   
    26    17    31 1   
    27    17    32 1   
    28    17    39 1   
    29    18    19 ar  
    30    18    23 ar  
    31    19    20 ar  
    32    19    33 1   
    33    20    21 ar  
    34    20    34 1   
    35    21    22 ar  
    36    21    35 1   
    37    22    23 ar  
    38    22    36 1   
    39    23    37 1   
    40    26    40 1   
    41    27    40 1   
    42    28    40 1   
@<TRIPOS>SUBSTRUCTURE
     1 9NX         1 TEMP              0 ****  ****    0 ROOT
