@<TRIPOS>MOLECULE
9O0
   11    10     1     0     0
SMALL
bcc


@<TRIPOS>ATOM
      1 OAE         -1.7290    -1.2580    -0.2240 o          1 9O0      -0.798300
      2 CAG         -1.4690    -0.0660    -0.0390 c          1 9O0       0.913600
      3 OAF         -2.1580     0.8100     0.5230 o          1 9O0      -0.798300
      4 CAH         -0.1060     0.4730    -0.5720 c3         1 9O0      -0.072900
      5 CAD          1.0520    -0.2470     0.0910 c3         1 9O0       0.643900
      6 FAB          1.1460    -1.5290    -0.2790 f          1 9O0      -0.255967
      7 FAI          2.2300     0.3250    -0.2090 f          1 9O0      -0.255967
      8 FAA          0.9550    -0.2290     1.4310 f          1 9O0      -0.255967
      9 OAC         -0.0020     1.8360    -0.3090 oh         1 9O0      -0.622800
     10 H2          -0.0420     0.2680    -1.6500 h1         1 9O0       0.058700
     11 H3          -0.8220     2.0060     0.1980 ho         1 9O0       0.444000
@<TRIPOS>BOND
     1     1     2 1   
     2     2     3 1   
     3     2     4 1   
     4     4     5 1   
     5     4     9 1   
     6     4    10 1   
     7     5     6 1   
     8     5     7 1   
     9     5     8 1   
    10     9    11 1   
@<TRIPOS>SUBSTRUCTURE
     1 9O0         1 TEMP              0 ****  ****    0 ROOT
