@<TRIPOS>MOLECULE
9O0
   11    10     1     0     0
SMALL
No Charge or Current Charge


@<TRIPOS>ATOM
      1 OAE         -1.9550    -1.0850    -0.6990 o          1 9O0      -0.693000
      2 CAG         -1.4590    -0.1590    -0.0730 c          1 9O0       0.703000
      3 OAF         -2.0450     0.4430     0.8180 o          1 9O0      -0.693000
      4 CAH         -0.1150     0.4470    -0.5860 c3         1 9O0      -0.049700
      5 CAD          1.0790    -0.2090     0.1640 c3         1 9O0       0.280000
      6 FAB          1.0690    -1.5540     0.0120 f          1 9O0      -0.134667
      7 FAI          2.2610     0.2450    -0.3150 f          1 9O0      -0.134667
      8 FAA          1.0400     0.0580     1.4900 f          1 9O0      -0.134667
      9 OAC         -0.0880     1.9070    -0.4730 oh         1 9O0      -0.685000
     10 H2          -0.0290     0.1650    -1.6440 h1         1 9O0       0.058700
     11 H3          -0.7040     2.1310     0.2670 ho         1 9O0       0.483000
@<TRIPOS>BOND
     1     1     2 1   
     2     2     3 1   
     3     2     4 1   
     4     4     5 1   
     5     4     9 1   
     6     4    10 1   
     7     5     6 1   
     8     5     7 1   
     9     5     8 1   
    10     9    11 1   
@<TRIPOS>SUBSTRUCTURE
     1 9O0         1 TEMP              0 ****  ****    0 ROOT
