@<TRIPOS>MOLECULE
9O1
   53    56     1     0     0
SMALL
No Charge or Current Charge


@<TRIPOS>ATOM
      1 C4          -0.2580     1.0960    -0.1370 ca         1 9O1      -0.072000
      2 C5           0.8300     1.9840    -0.1200 ca         1 9O1      -0.109000
      3 C6           1.2090     2.6090     1.0750 ca         1 9O1      -0.083000
      4 C7          -2.1410    -0.1080     0.9830 cc         1 9O1       0.344500
      5 C10         -3.5830    -1.6070     0.2440 cd         1 9O1       0.253300
      6 C13         -5.4510    -3.2910     0.6520 c3         1 9O1      -0.087600
      7 C20          2.3970    -1.2640    -0.4490 ca         1 9O1      -0.102300
      8 C21          1.6480    -3.6660     0.0250 c3         1 9O1      -0.101100
      9 C22          2.8670    -0.9080     0.8330 ca         1 9O1      -0.098000
     10 C24          2.9040    -0.5890    -1.5780 ca         1 9O1      -0.076000
     11 C26          4.3340     0.7730    -0.1450 ca         1 9O1      -0.035000
     12 C28          5.7840     2.4680    -1.1290 ca         1 9O1      -0.106000
     13 C12         -4.3770    -2.7660    -0.3320 c3         1 9O1      -0.106000
     14 C14         -4.9970    -2.3890    -1.6950 c3         1 9O1      -0.087600
     15 O9          -4.2450    -0.6920     1.0160 os         1 9O1      -0.063700
     16 N8          -3.3050     0.2820     1.4810 nd         1 9O1      -0.339300
     17 C3          -0.9760     0.7960     1.0460 ca         1 9O1      -0.134500
     18 C1           0.4840     2.3550     2.2500 ca         1 9O1      -0.098000
     19 C2          -0.6090     1.4710     2.2400 ca         1 9O1       0.136000
     20 Cl18        -1.4100     1.1560     3.7810 cl         1 9O1      -0.202000
     21 C11         -2.2600    -1.2890     0.2000 cc         1 9O1      -0.296600
     22 O17         -1.4160    -2.9640    -1.2760 o          1 9O1      -0.606100
     23 N16          0.0670    -1.7620    -0.0650 ns         1 9O1      -0.500900
     24 C19          1.2980    -2.3080    -0.6170 c3         1 9O1       0.167000
     25 C23          3.8320     0.1020     0.9840 ca         1 9O1      -0.102000
     26 C27          5.2910     1.7950     0.0030 ca         1 9O1      -0.102000
     27 C29          5.3200     2.1220    -2.4100 ca         1 9O1      -0.112000
     28 C30          4.3640     1.1030    -2.5620 ca         1 9O1      -0.096000
     29 C25          3.8690     0.4260    -1.4310 ca         1 9O1      -0.039000
     30 H1          -0.5520     0.6530    -1.0860 ha         1 9O1       0.128000
     31 H2           1.3770     2.1900    -1.0370 ha         1 9O1       0.121000
     32 H3           2.0560     3.2910     1.0900 ha         1 9O1       0.124000
     33 H4          -6.2210    -2.5320     0.8420 hc         1 9O1       0.045867
     34 H5          -5.9460    -4.1820     0.2460 hc         1 9O1       0.045867
     35 H6          -4.9950    -3.5660     1.6110 hc         1 9O1       0.045867
     36 H7           2.5940    -4.0450    -0.3780 hc         1 9O1       0.045033
     37 H8           1.7460    -3.5790     1.1130 hc         1 9O1       0.045033
     38 H9           0.8670    -4.4050    -0.1880 hc         1 9O1       0.045033
     39 H10          2.4750    -1.4010     1.7190 ha         1 9O1       0.116000
     40 H11          2.5370    -0.8430    -2.5700 ha         1 9O1       0.118000
     41 H12          6.5230     3.2570    -1.0120 ha         1 9O1       0.115000
     42 H13         -3.6990    -3.6090    -0.5040 hc         1 9O1       0.080700
     43 H14         -4.2160    -2.0780    -2.4010 hc         1 9O1       0.045867
     44 H15         -5.5280    -3.2430    -2.1320 hc         1 9O1       0.045867
     45 H16         -5.7080    -1.5610    -1.5860 hc         1 9O1       0.045867
     46 H17          0.7760     2.8410     3.1780 ha         1 9O1       0.133000
     47 H18          0.1530    -1.0260     0.6220 hn         1 9O1       0.324500
     48 H19          1.1430    -2.4790    -1.6920 h1         1 9O1       0.074700
     49 H20          4.1800     0.3680     1.9790 ha         1 9O1       0.115000
     50 H21          5.6530     2.0690     0.9910 ha         1 9O1       0.115000
     51 H22          5.7010     2.6450    -3.2850 ha         1 9O1       0.115000
     52 H23          4.0090     0.8430    -3.5570 ha         1 9O1       0.115000
     53 C15         -1.2050    -2.0760    -0.4660 c          1 9O1       0.652700
@<TRIPOS>BOND
     1     1     2 ar  
     2     1    17 ar  
     3     1    30 1   
     4     2     3 ar  
     5     2    31 1   
     6     3    18 ar  
     7     3    32 1   
     8     4    16 2   
     9     4    17 1   
    10     4    21 1   
    11     5    13 1   
    12     5    15 1   
    13     5    21 2   
    14     6    13 1   
    15     6    33 1   
    16     6    34 1   
    17     6    35 1   
    18     7     9 ar  
    19     7    10 ar  
    20     7    24 1   
    21     8    24 1   
    22     8    36 1   
    23     8    37 1   
    24     8    38 1   
    25     9    25 ar  
    26     9    39 1   
    27    10    29 ar  
    28    10    40 1   
    29    11    25 ar  
    30    11    26 ar  
    31    11    29 ar  
    32    12    26 ar  
    33    12    27 ar  
    34    12    41 1   
    35    13    14 1   
    36    13    42 1   
    37    14    43 1   
    38    14    44 1   
    39    14    45 1   
    40    15    16 1   
    41    17    19 ar  
    42    18    19 ar  
    43    18    46 1   
    44    19    20 1   
    45    21    53 1   
    46    22    53 2   
    47    23    24 1   
    48    23    47 1   
    49    23    53 1   
    50    24    48 1   
    51    25    49 1   
    52    26    50 1   
    53    27    28 ar  
    54    27    51 1   
    55    28    29 ar  
    56    28    52 1   
@<TRIPOS>SUBSTRUCTURE
     1 9O1         1 TEMP              0 ****  ****    0 ROOT
