@<TRIPOS>MOLECULE
9O1
   53    56     1     0     0
SMALL
abcg2


@<TRIPOS>ATOM
      1 C4          -0.6930     1.7060    -1.0260 ca         1 9O1      -0.072000
      2 C5           0.4190     2.5180    -1.1860 ca         1 9O1      -0.109000
      3 C6           1.3160     2.6760    -0.1410 ca         1 9O1      -0.083000
      4 C7          -2.0950     0.1560     0.3040 cc         1 9O1       0.344500
      5 C10         -3.4950    -1.5240     0.1770 cd         1 9O1       0.253300
      6 C13         -5.1940    -3.0490     1.2000 c3         1 9O1      -0.087600
      7 C20          2.3620    -1.3980    -0.2220 ca         1 9O1      -0.102300
      8 C21          1.6710    -3.8410    -0.0370 c3         1 9O1      -0.101100
      9 C22          2.8410    -1.2380     1.1010 ca         1 9O1      -0.098000
     10 C24          2.8010    -0.5430    -1.1960 ca         1 9O1      -0.076000
     11 C26          4.1970     0.6440     0.4160 ca         1 9O1      -0.035000
     12 C28          5.5130     2.5490    -0.2760 ca         1 9O1      -0.106000
     13 C12         -4.2930    -2.7690    -0.0020 c3         1 9O1      -0.106000
     14 C14         -5.0940    -2.7010    -1.3050 c3         1 9O1      -0.087600
     15 O9          -4.1110    -0.4360     0.6300 os         1 9O1      -0.063700
     16 N8          -3.2450     0.6150     0.6960 nd         1 9O1      -0.339300
     17 C3          -0.9230     1.0430     0.1760 ca         1 9O1      -0.134500
     18 C1           1.1040     2.0280     1.0660 ca         1 9O1      -0.098000
     19 C2          -0.0100     1.2200     1.2100 ca         1 9O1       0.136000
     20 CL18        -0.2440     0.3690     2.7040 cl         1 9O1      -0.202000
     21 C11         -2.1870    -1.2210    -0.0440 cc         1 9O1      -0.296600
     22 O17         -1.3360    -2.8030    -1.5850 o          1 9O1      -0.606100
     23 N16          0.0530    -1.9700     0.0010 ns         1 9O1      -0.500900
     24 C19          1.3190    -2.4460    -0.5390 c3         1 9O1       0.167000
     25 C23          3.7300    -0.2480     1.4100 ca         1 9O1      -0.102000
     26 C27          5.0980     1.6940     0.7090 ca         1 9O1      -0.102000
     27 C29          5.0480     2.3910    -1.5990 ca         1 9O1      -0.112000
     28 C30          4.1760     1.3830    -1.9090 ca         1 9O1      -0.096000
     29 C25          3.7250     0.4880    -0.9110 ca         1 9O1      -0.039000
     30 H1          -1.3930     1.5740    -1.8410 ha         1 9O1       0.128000
     31 H2           0.5850     3.0230    -2.1280 ha         1 9O1       0.121000
     32 H3           2.1920     3.2980    -0.2610 ha         1 9O1       0.124000
     33 H4          -5.9750    -2.2950     1.3050 hc         1 9O1       0.045867
     34 H5          -5.6830    -4.0140     1.0690 hc         1 9O1       0.045867
     35 H6          -4.6280    -3.0870     2.1310 hc         1 9O1       0.045867
     36 H7           2.6200    -4.1680    -0.4640 hc         1 9O1       0.045033
     37 H8           1.7560    -3.8770     1.0500 hc         1 9O1       0.045033
     38 H9           0.9020    -4.5520    -0.3360 hc         1 9O1       0.045033
     39 H10          2.5040    -1.9050     1.8850 ha         1 9O1       0.116000
     40 H11          2.4320    -0.6420    -2.2110 ha         1 9O1       0.118000
     41 H12          6.1990     3.3530    -0.0440 ha         1 9O1       0.115000
     42 H13         -3.5720    -3.5840    -0.0930 hc         1 9O1       0.080700
     43 H14         -4.4390    -2.5570    -2.1630 hc         1 9O1       0.045867
     44 H15         -5.6400    -3.6340    -1.4490 hc         1 9O1       0.045867
     45 H16         -5.8200    -1.8870    -1.2830 hc         1 9O1       0.045867
     46 H17          1.8050     2.1420     1.8820 ha         1 9O1       0.133000
     47 H18          0.0890    -1.4560     0.8670 hn         1 9O1       0.324500
     48 H19          1.2030    -2.4930    -1.6230 h1         1 9O1       0.074700
     49 H20          4.0820    -0.1330     2.4280 ha         1 9O1       0.115000
     50 H21          5.4510     1.8150     1.7260 ha         1 9O1       0.115000
     51 H22          5.3840     3.0740    -2.3680 ha         1 9O1       0.115000
     52 H23          3.8140     1.2660    -2.9230 ha         1 9O1       0.115000
     53 C15         -1.1310    -2.0850    -0.6150 c          1 9O1       0.652700
@<TRIPOS>BOND
     1     1     2 ar  
     2     1    17 ar  
     3     1    30 1   
     4     2     3 ar  
     5     2    31 1   
     6     3    18 ar  
     7     3    32 1   
     8     4    16 2   
     9     4    17 1   
    10     4    21 1   
    11     5    13 1   
    12     5    15 1   
    13     5    21 2   
    14     6    13 1   
    15     6    33 1   
    16     6    34 1   
    17     6    35 1   
    18     7     9 ar  
    19     7    10 ar  
    20     7    24 1   
    21     8    24 1   
    22     8    36 1   
    23     8    37 1   
    24     8    38 1   
    25     9    25 ar  
    26     9    39 1   
    27    10    29 ar  
    28    10    40 1   
    29    11    25 ar  
    30    11    26 ar  
    31    11    29 ar  
    32    12    26 ar  
    33    12    27 ar  
    34    12    41 1   
    35    13    14 1   
    36    13    42 1   
    37    14    43 1   
    38    14    44 1   
    39    14    45 1   
    40    15    16 1   
    41    17    19 ar  
    42    18    19 ar  
    43    18    46 1   
    44    19    20 1   
    45    21    53 1   
    46    22    53 2   
    47    23    24 1   
    48    23    47 1   
    49    23    53 1   
    50    24    48 1   
    51    25    49 1   
    52    26    50 1   
    53    27    28 ar  
    54    27    51 1   
    55    28    29 ar  
    56    28    52 1   
@<TRIPOS>SUBSTRUCTURE
     1 9O1         1 TEMP              0 ****  ****    0 ROOT
