@<TRIPOS>MOLECULE
9O2
   56    59     1     0     0
SMALL
No Charge or Current Charge


@<TRIPOS>ATOM
      1 C4          -0.9150     2.5910     0.0950 ca         1 9O2       0.108000
      2 C5           0.4950     2.6890     0.0590 ca         1 9O2      -0.227000
      3 C6           1.2210     1.4780     0.0370 ca         1 9O2       0.420900
      4 N1           0.6010     0.2890     0.0500 nb         1 9O2      -0.302000
      5 N3          -1.5150     1.3850     0.1080 nb         1 9O2      -0.218000
      6 CAJ         -8.1040    -2.0050    -1.0510 c3         1 9O2      -0.078100
      7 CAH         -7.3660    -2.3070     0.2720 c3         1 9O2      -0.158400
      8 CAG         -5.9680    -1.6730     0.3030 c          1 9O2       0.603100
      9 OAI         -5.8190    -0.4670     0.4640 o          1 9O2      -0.572100
     10 CAN         -3.5110    -2.4290     0.1460 ca         1 9O2      -0.037000
     11 CAO         -2.8590    -1.1740     0.1320 ca         1 9O2      -0.089000
     12 CAM         -2.7370    -3.6010     0.1190 ca         1 9O2      -0.155000
     13 CAL         -1.3380    -3.5290     0.0870 ca         1 9O2      -0.103000
     14 CAK         -0.6960    -2.2810     0.0780 ca         1 9O2      -0.092000
     15 CAP         -1.4380    -1.0680     0.0990 cp         1 9O2      -0.122500
     16 C2          -0.7460     0.2760     0.0850 cp         1 9O2       0.246500
     17 CBC         -1.6860     3.7660     0.1190 ca         1 9O2      -0.199000
     18 CBD         -1.0720     5.0220     0.1060 ca         1 9O2       0.339000
     19 NAQ         -1.8340     6.1560     0.1280 nv         1 9O2      -1.093000
     20 CBE          0.3230     5.1200     0.0710 ca         1 9O2      -0.189000
     21 CAZ          1.1130     3.9590     0.0470 ca         1 9O2      -0.030000
     22 NAS          2.6130     1.4460     0.0010 nu         1 9O2      -0.929100
     23 CAU          3.4750     0.2490    -0.0240 c3         1 9O2       0.229800
     24 CAR          4.9650     0.6440    -0.0610 c3         1 9O2      -0.050100
     25 CAT          5.8750    -0.5770    -0.0880 ca         1 9O2      -0.083300
     26 CAA          6.3240    -1.1550     1.1160 ca         1 9O2      -0.103500
     27 CAB          7.1590    -2.2860     1.0920 ca         1 9O2      -0.108500
     28 CAC          7.5480    -2.8470    -0.1360 ca         1 9O2      -0.108000
     29 CAD          7.1010    -2.2760    -1.3400 ca         1 9O2      -0.108500
     30 CAE          6.2670    -1.1450    -1.3160 ca         1 9O2      -0.103500
     31 H1          -8.2290    -0.9240    -1.1900 hc         1 9O2       0.043700
     32 H2          -7.5440    -2.4010    -1.9070 hc         1 9O2       0.043700
     33 H3          -9.0990    -2.4660    -1.0500 hc         1 9O2       0.043700
     34 H4          -7.9600    -1.8940     1.0970 hc         1 9O2       0.055200
     35 H5          -7.2900    -3.3960     0.3810 hc         1 9O2       0.055200
     36 H6          -5.2300    -3.5430     0.0780 hn         1 9O2       0.145000
     37 H7          -3.4490    -0.2640     0.1400 ha         1 9O2       0.169000
     38 H8          -3.2210    -4.5750     0.1260 ha         1 9O2       0.105000
     39 H9          -0.7480    -4.4420     0.0690 ha         1 9O2       0.112000
     40 H10          0.3920    -2.2650     0.0530 ha         1 9O2       0.135000
     41 H11         -2.7690     3.6950     0.1470 ha         1 9O2       0.137000
     42 H12         -2.8400     6.0880    -0.0200 hn         1 9O2       0.465500
     43 H13         -1.3980     7.0590    -0.0490 hn         1 9O2       0.465500
     44 H14          0.8030     6.0950     0.0630 ha         1 9O2       0.112000
     45 H15          2.1950     4.0640     0.0200 ha         1 9O2       0.101000
     46 H16          3.0740     2.3530    -0.0080 hn         1 9O2       0.489000
     47 H17          3.2910    -0.3680     0.8670 h1         1 9O2       0.060700
     48 H18          3.2460    -0.3630    -0.9070 h1         1 9O2       0.060700
     49 H19          5.1500     1.2690    -0.9430 hc         1 9O2       0.050700
     50 H20          5.1950     1.2640     0.8140 hc         1 9O2       0.050700
     51 H21          6.0260    -0.7280     2.0720 ha         1 9O2       0.111500
     52 H22          7.5030    -2.7280     2.0250 ha         1 9O2       0.113500
     53 H23          8.1930    -3.7220    -0.1550 ha         1 9O2       0.113000
     54 H24          7.4010    -2.7100    -2.2910 ha         1 9O2       0.113500
     55 H25          5.9240    -0.7110    -2.2530 ha         1 9O2       0.111500
     56 NAF         -4.9260    -2.5830     0.1750 ns         1 9O2      -0.150000
@<TRIPOS>BOND
     1     1     2 ar  
     2     1     5 ar  
     3     1    17 ar  
     4     2     3 ar  
     5     2    21 ar  
     6     3     4 ar  
     7     3    22 1   
     8     4    16 ar  
     9     5    16 ar  
    10     6     7 1   
    11     6    31 1   
    12     6    32 1   
    13     6    33 1   
    14     7     8 1   
    15     7    34 1   
    16     7    35 1   
    17     8     9 2   
    18     8    56 1   
    19    10    11 ar  
    20    10    12 ar  
    21    10    56 1   
    22    11    15 ar  
    23    11    37 1   
    24    12    13 ar  
    25    12    38 1   
    26    13    14 ar  
    27    13    39 1   
    28    14    15 ar  
    29    14    40 1   
    30    15    16 1   
    31    17    18 ar  
    32    17    41 1   
    33    18    19 1   
    34    18    20 ar  
    35    19    42 1   
    36    19    43 1   
    37    20    21 ar  
    38    20    44 1   
    39    21    45 1   
    40    22    23 1   
    41    22    46 1   
    42    23    24 1   
    43    23    47 1   
    44    23    48 1   
    45    24    25 1   
    46    24    49 1   
    47    24    50 1   
    48    25    26 ar  
    49    25    30 ar  
    50    26    27 ar  
    51    26    51 1   
    52    27    28 ar  
    53    27    52 1   
    54    28    29 ar  
    55    28    53 1   
    56    29    30 ar  
    57    29    54 1   
    58    30    55 1   
    59    36    56 1   
@<TRIPOS>SUBSTRUCTURE
     1 9O2         1 TEMP              0 ****  ****    0 ROOT
