@<TRIPOS>MOLECULE
9O2
   56    59     1     0     0
SMALL
bcc


@<TRIPOS>ATOM
      1 C4          -0.9040     2.5310    -0.0470 ca         1 9O2       0.501600
      2 C5           0.5000     2.6790    -0.0580 ca         1 9O2      -0.357600
      3 C6           1.2560     1.4620    -0.0880 ca         1 9O2       0.749200
      4 N1           0.6500     0.2880    -0.0920 nb         1 9O2      -0.828000
      5 N3          -1.4880     1.3030    -0.0510 nb         1 9O2      -0.744000
      6 CAJ         -8.1820    -1.6400    -0.4850 c3         1 9O2      -0.078100
      7 CAH         -7.0750    -2.3540     0.2720 c3         1 9O2      -0.158400
      8 CAG         -5.7050    -1.7590     0.0210 c          1 9O2       0.670100
      9 OAI         -5.5440    -0.5780    -0.2300 o          1 9O2      -0.572100
     10 CAN         -3.3080    -2.4480     0.0440 ca         1 9O2       0.055600
     11 CAO         -2.7050    -1.1930     0.0120 ca         1 9O2      -0.107000
     12 CAM         -2.5050    -3.5920     0.0100 ca         1 9O2      -0.173000
     13 CAL         -1.1280    -3.4750    -0.0540 ca         1 9O2      -0.121000
     14 CAK         -0.5250    -2.2260    -0.0850 ca         1 9O2      -0.110000
     15 CAP         -1.3160    -1.0810    -0.0500 cp         1 9O2      -0.122500
     16 C2          -0.6910     0.2670    -0.0650 cp         1 9O2       0.772500
     17 CBC         -1.7240     3.6670    -0.0260 ca         1 9O2      -0.282300
     18 CBD         -1.1790     4.9430    -0.0050 ca         1 9O2       0.200600
     19 NAQ         -1.9630     6.0550     0.0690 nv         1 9O2      -0.844200
     20 CBE          0.2340     5.0800    -0.0110 ca         1 9O2      -0.207000
     21 CAZ          1.0420     3.9770    -0.0350 ca         1 9O2      -0.048000
     22 NAS          2.5960     1.4780    -0.0950 nu         1 9O2      -0.873900
     23 CAU          3.4170     0.2910    -0.1860 c3         1 9O2       0.229800
     24 CAR          4.8450     0.6120     0.2460 c3         1 9O2      -0.050100
     25 CAT          5.7260    -0.6000     0.1340 ca         1 9O2      -0.083300
     26 CAA          5.9140    -1.4470     1.2240 ca         1 9O2      -0.121500
     27 CAB          6.7010    -2.5860     1.1120 ca         1 9O2      -0.126500
     28 CAC          7.3110    -2.8960    -0.0960 ca         1 9O2      -0.126000
     29 CAD          7.1300    -2.0590    -1.1900 ca         1 9O2      -0.126500
     30 CAE          6.3420    -0.9210    -1.0740 ca         1 9O2      -0.121500
     31 H1          -8.2150    -0.5790    -0.2420 hc         1 9O2       0.043700
     32 H2          -8.0540    -1.7360    -1.5630 hc         1 9O2       0.043700
     33 H3          -9.1480    -2.0700    -0.2260 hc         1 9O2       0.043700
     34 H4          -7.2560    -2.2860     1.3500 hc         1 9O2       0.055200
     35 H5          -7.0800    -3.4210     0.0370 hc         1 9O2       0.055200
     36 H6          -4.9610    -3.6110     0.2960 hn         1 9O2       0.311500
     37 H7          -3.2980    -0.2950     0.0400 ha         1 9O2       0.187000
     38 H8          -2.9620    -4.5740     0.0350 ha         1 9O2       0.123000
     39 H9          -0.5190    -4.3690    -0.0810 ha         1 9O2       0.130000
     40 H10          0.5510    -2.1380    -0.1320 ha         1 9O2       0.153000
     41 H11         -2.7990     3.5290    -0.0200 ha         1 9O2       0.155000
     42 H12         -2.9350     5.9600    -0.1720 hn         1 9O2       0.410300
     43 H13         -1.5590     6.9350    -0.2060 hn         1 9O2       0.410300
     44 H14          0.6730     6.0700     0.0100 ha         1 9O2       0.130000
     45 H15          2.1130     4.1340    -0.0320 ha         1 9O2       0.119000
     46 H16          3.0620     2.3580    -0.2420 hn         1 9O2       0.433800
     47 H17          2.9980    -0.4840     0.4570 h1         1 9O2       0.060700
     48 H18          3.4170    -0.1080    -1.2060 h1         1 9O2       0.060700
     49 H19          5.2420     1.4190    -0.3760 hc         1 9O2       0.050700
     50 H20          4.8350     0.9760     1.2760 hc         1 9O2       0.050700
     51 H21          5.4450    -1.2090     2.1720 ha         1 9O2       0.129500
     52 H22          6.8400    -3.2290     1.9720 ha         1 9O2       0.131500
     53 H23          7.9280    -3.7810    -0.1840 ha         1 9O2       0.131000
     54 H24          7.6060    -2.2900    -2.1350 ha         1 9O2       0.131500
     55 H25          6.2090    -0.2710    -1.9310 ha         1 9O2       0.129500
     56 NAF         -4.6890    -2.6540     0.1340 ns         1 9O2      -0.476100
@<TRIPOS>BOND
     1     1     2 ar  
     2     1     5 ar  
     3     1    17 ar  
     4     2     3 ar  
     5     2    21 ar  
     6     3     4 ar  
     7     3    22 1   
     8     4    16 ar  
     9     5    16 ar  
    10     6     7 1   
    11     6    31 1   
    12     6    32 1   
    13     6    33 1   
    14     7     8 1   
    15     7    34 1   
    16     7    35 1   
    17     8     9 2   
    18     8    56 1   
    19    10    11 ar  
    20    10    12 ar  
    21    10    56 1   
    22    11    15 ar  
    23    11    37 1   
    24    12    13 ar  
    25    12    38 1   
    26    13    14 ar  
    27    13    39 1   
    28    14    15 ar  
    29    14    40 1   
    30    15    16 1   
    31    17    18 ar  
    32    17    41 1   
    33    18    19 1   
    34    18    20 ar  
    35    19    42 1   
    36    19    43 1   
    37    20    21 ar  
    38    20    44 1   
    39    21    45 1   
    40    22    23 1   
    41    22    46 1   
    42    23    24 1   
    43    23    47 1   
    44    23    48 1   
    45    24    25 1   
    46    24    49 1   
    47    24    50 1   
    48    25    26 ar  
    49    25    30 ar  
    50    26    27 ar  
    51    26    51 1   
    52    27    28 ar  
    53    27    52 1   
    54    28    29 ar  
    55    28    53 1   
    56    29    30 ar  
    57    29    54 1   
    58    30    55 1   
    59    36    56 1   
@<TRIPOS>SUBSTRUCTURE
     1 9O2         1 TEMP              0 ****  ****    0 ROOT
