@<TRIPOS>MOLECULE
9O3
   12    11     1     0     0
SMALL
No Charge or Current Charge


@<TRIPOS>ATOM
      1 CAA          1.1910    -0.2930     0.3090 c3         1 9O3       0.260000
      2 CAB         -1.3810    -0.2730     0.1410 c          1 9O3       0.688000
      3 CAH         -0.0400     0.4860    -0.2890 c3         1 9O3       0.189000
      4 FAE          1.2370    -1.5670    -0.1480 f          1 9O3      -0.131000
      5 FAF          2.3670     0.2980    -0.0190 f          1 9O3      -0.131000
      6 FAG          1.1290    -0.3500     1.6610 f          1 9O3      -0.131000
      7 OAC         -1.8840    -1.0430    -0.6680 o          1 9O3      -0.684500
      8 OAD         -1.9890     0.1500     1.1180 o          1 9O3      -0.684500
      9 OAI         -0.0570     1.8560     0.1640 oh         1 9O3      -0.667500
     10 OAJ          0.0560     0.5850    -1.7260 oh         1 9O3      -0.667500
     11 H2          -0.9560     1.9920     0.5430 ho         1 9O3       0.480000
     12 H3          -0.7990     0.2320    -2.0650 ho         1 9O3       0.480000
@<TRIPOS>BOND
     1     1     3 1   
     2     1     4 1   
     3     1     5 1   
     4     1     6 1   
     5     2     3 1   
     6     2     7 1   
     7     2     8 1   
     8     3     9 1   
     9     3    10 1   
    10     9    11 1   
    11    10    12 1   
@<TRIPOS>SUBSTRUCTURE
     1 9O3         1 TEMP              0 ****  ****    0 ROOT
