@<TRIPOS>MOLECULE
9O3
   12    11     1     0     0
SMALL
bcc


@<TRIPOS>ATOM
      1 CAA          1.1030    -0.2440     0.2350 c3         1 9O3       0.623900
      2 CAB         -1.4400    -0.1500     0.0980 c          1 9O3       0.898600
      3 CAH         -0.0970     0.5400    -0.3140 c3         1 9O3       0.142600
      4 FAE          1.1910    -1.4720    -0.2880 f          1 9O3      -0.252300
      5 FAF          2.2610     0.3760    -0.0250 f          1 9O3      -0.252300
      6 FAG          1.0230    -0.3900     1.5650 f          1 9O3      -0.252300
      7 OAC         -1.7820    -1.1170    -0.5940 o          1 9O3      -0.789800
      8 OAD         -2.0210     0.3860     1.0570 o          1 9O3      -0.789800
      9 OAI         -0.0380     1.8100     0.2200 oh         1 9O3      -0.605300
     10 OAJ          0.0230     0.5910    -1.6980 oh         1 9O3      -0.605300
     11 H2          -0.8080     1.8530     0.8170 ho         1 9O3       0.441000
     12 H3          -0.5410    -0.1100    -2.0530 ho         1 9O3       0.441000
@<TRIPOS>BOND
     1     1     3 1   
     2     1     4 1   
     3     1     5 1   
     4     1     6 1   
     5     2     3 1   
     6     2     7 1   
     7     2     8 1   
     8     3     9 1   
     9     3    10 1   
    10     9    11 1   
    11    10    12 1   
@<TRIPOS>SUBSTRUCTURE
     1 9O3         1 TEMP              0 ****  ****    0 ROOT
