@<TRIPOS>MOLECULE
9O5
   57    60     1     0     0
SMALL
abcg2


@<TRIPOS>ATOM
      1 C4          -0.5380    -2.8000    -0.1270 ca         1 9O5       0.109000
      2 C5           0.8690    -2.7620    -0.0060 ca         1 9O5      -0.227000
      3 C6           1.4600    -1.4560    -0.0130 ca         1 9O5       0.422900
      4 N1           0.7110    -0.3740    -0.1270 nb         1 9O5      -0.303000
      5 N3          -1.2710    -1.6620    -0.2510 nb         1 9O5      -0.232000
      6 CAB         -7.9260     2.0960     1.7940 c3         1 9O5      -0.202100
      7 CAC         -7.2330     1.9400     0.4690 c          1 9O5       0.570100
      8 OAA         -7.8440     1.7740    -0.5640 o          1 9O5      -0.523100
      9 CAD         -5.7270     1.9920     0.5110 c3         1 9O5      -0.183400
     10 CAO         -3.5470     1.8230    -0.6930 ca         1 9O5      -0.103300
     11 CAP         -2.7890     0.6680    -0.5470 ca         1 9O5      -0.063000
     12 CAN         -2.8950     3.0560    -0.6760 ca         1 9O5      -0.093000
     13 CAM         -1.5190     3.1220    -0.5170 ca         1 9O5      -0.130000
     14 CAL         -0.7730     1.9620    -0.3750 ca         1 9O5      -0.066000
     15 CAQ         -1.4040     0.7190    -0.3900 cp         1 9O5      -0.147500
     16 C2          -0.6160    -0.5300    -0.2480 cp         1 9O5       0.252500
     17 CBC         -1.2040    -4.0330    -0.1170 ca         1 9O5      -0.202000
     18 CBD         -0.5030    -5.2240     0.0030 ca         1 9O5       0.339000
     19 NAU         -1.1310    -6.4340    -0.0370 nv         1 9O5      -1.088000
     20 CBE          0.9100    -5.1740     0.1230 ca         1 9O5      -0.189000
     21 CAZ          1.5690    -3.9760     0.1170 ca         1 9O5      -0.028000
     22 NAT          2.7860    -1.2890     0.0860 nu         1 9O5      -0.929100
     23 CAS          3.4200     0.0090     0.1770 c3         1 9O5       0.229800
     24 CAR          4.9260    -0.1280    -0.0170 c3         1 9O5      -0.049100
     25 CAK          5.6070     1.2060     0.1120 ca         1 9O5      -0.083300
     26 CAF          5.9780     1.6980     1.3610 ca         1 9O5      -0.103500
     27 CAG          6.5710     2.9470     1.4860 ca         1 9O5      -0.108500
     28 CAH          6.8050     3.7240     0.3580 ca         1 9O5      -0.107000
     29 CAI          6.4390     3.2430    -0.8920 ca         1 9O5      -0.108500
     30 CAJ          5.8430     1.9940    -1.0110 ca         1 9O5      -0.103500
     31 H1          -7.7550     1.2020     2.3990 hc         1 9O5       0.060033
     32 H2          -7.5150     2.9360     2.3550 hc         1 9O5       0.060033
     33 H3          -8.9990     2.2310     1.6700 hc         1 9O5       0.060033
     34 H4          -5.4440     2.9690     0.9170 hc         1 9O5       0.063700
     35 H5          -5.3830     1.2690     1.2590 hc         1 9O5       0.063700
     36 H6          -5.3290     0.7710    -1.2190 hc         1 9O5       0.059700
     37 H7          -5.3850     2.4910    -1.5540 hc         1 9O5       0.059700
     38 H8          -3.2820    -0.2960    -0.5630 ha         1 9O5       0.135000
     39 H9          -3.4700     3.9680    -0.7930 ha         1 9O5       0.109000
     40 H10         -1.0230     4.0850    -0.5080 ha         1 9O5       0.112000
     41 H11          0.3010     2.0160    -0.2590 ha         1 9O5       0.133000
     42 H12         -2.2840    -4.0380    -0.2060 ha         1 9O5       0.132000
     43 H13         -2.1240    -6.4480     0.1280 hn         1 9O5       0.463500
     44 H14         -0.6470    -7.2230     0.3570 hn         1 9O5       0.463500
     45 H15          1.4700    -6.0960     0.2200 ha         1 9O5       0.113000
     46 H16          2.6480    -3.9920     0.2080 ha         1 9O5       0.101000
     47 H17          3.3610    -2.0920     0.2770 hn         1 9O5       0.491000
     48 H18          3.0030     0.6680    -0.5860 h1         1 9O5       0.061200
     49 H19          3.2070     0.4740     1.1460 h1         1 9O5       0.061200
     50 H20          5.3280    -0.8250     0.7250 hc         1 9O5       0.050200
     51 H21          5.1250    -0.5560    -1.0020 hc         1 9O5       0.050200
     52 H22          5.8040     1.0970     2.2470 ha         1 9O5       0.111500
     53 H23          6.8540     3.3130     2.4650 ha         1 9O5       0.113500
     54 H24          7.2720     4.6960     0.4540 ha         1 9O5       0.114000
     55 H25          6.6190     3.8390    -1.7780 ha         1 9O5       0.113500
     56 H26          5.5640     1.6250    -1.9910 ha         1 9O5       0.111500
     57 CAE         -5.0420     1.7500    -0.8290 c3         1 9O5      -0.017100
@<TRIPOS>BOND
     1     1     2 ar  
     2     1     5 ar  
     3     1    17 ar  
     4     2     3 ar  
     5     2    21 ar  
     6     3     4 ar  
     7     3    22 1   
     8     4    16 ar  
     9     5    16 ar  
    10     6     7 1   
    11     6    31 1   
    12     6    32 1   
    13     6    33 1   
    14     7     8 2   
    15     7     9 1   
    16     9    34 1   
    17     9    35 1   
    18     9    57 1   
    19    10    11 ar  
    20    10    12 ar  
    21    10    57 1   
    22    11    15 ar  
    23    11    38 1   
    24    12    13 ar  
    25    12    39 1   
    26    13    14 ar  
    27    13    40 1   
    28    14    15 ar  
    29    14    41 1   
    30    15    16 1   
    31    17    18 ar  
    32    17    42 1   
    33    18    19 1   
    34    18    20 ar  
    35    19    43 1   
    36    19    44 1   
    37    20    21 ar  
    38    20    45 1   
    39    21    46 1   
    40    22    23 1   
    41    22    47 1   
    42    23    24 1   
    43    23    48 1   
    44    23    49 1   
    45    24    25 1   
    46    24    50 1   
    47    24    51 1   
    48    25    26 ar  
    49    25    30 ar  
    50    26    27 ar  
    51    26    52 1   
    52    27    28 ar  
    53    27    53 1   
    54    28    29 ar  
    55    28    54 1   
    56    29    30 ar  
    57    29    55 1   
    58    30    56 1   
    59    36    57 1   
    60    37    57 1   
@<TRIPOS>SUBSTRUCTURE
     1 9O5         1 TEMP              0 ****  ****    0 ROOT
