@<TRIPOS>MOLECULE
9O5
   57    60     1     0     0
SMALL
No Charge or Current Charge


@<TRIPOS>ATOM
      1 C4          -0.5470    -2.8150    -0.1670 ca         1 9O5       0.109000
      2 C5           0.8620    -2.7350    -0.0830 ca         1 9O5      -0.227000
      3 C6           1.4310    -1.4430    -0.0590 ca         1 9O5       0.422900
      4 N1           0.6690    -0.3410    -0.1130 nb         1 9O5      -0.303000
      5 N3          -1.2910    -1.6930    -0.2200 nb         1 9O5      -0.232000
      6 CAB         -8.2100     2.7250     1.0610 c3         1 9O5      -0.202100
      7 CAC         -7.4230     1.4380     0.8210 c          1 9O5       0.570100
      8 OAA         -7.9860     0.3820     0.5600 o          1 9O5      -0.523100
      9 CAD         -5.8970     1.5360     0.9190 c3         1 9O5      -0.183400
     10 CAO         -3.7390     1.8310    -0.3910 ca         1 9O5      -0.103300
     11 CAP         -2.9390     0.6730    -0.3360 ca         1 9O5      -0.063000
     12 CAN         -3.1300     3.0970    -0.3600 ca         1 9O5      -0.093000
     13 CAM         -1.7350     3.2030    -0.2770 ca         1 9O5      -0.130000
     14 CAL         -0.9390     2.0470    -0.2240 ca         1 9O5      -0.066000
     15 CAQ         -1.5190     0.7480    -0.2510 cp         1 9O5      -0.147500
     16 C2          -0.6660    -0.4970    -0.1910 cp         1 9O5       0.252500
     17 CBC         -1.1640    -4.0770    -0.1940 ca         1 9O5      -0.202000
     18 CBD         -0.4000    -5.2460    -0.1400 ca         1 9O5       0.339000
     19 NAU         -1.0150    -6.4660    -0.1670 nv         1 9O5      -1.088000
     20 CBE          0.9950    -5.1690    -0.0580 ca         1 9O5      -0.189000
     21 CAZ          1.6330    -3.9180    -0.0290 ca         1 9O5      -0.028000
     22 NAT          2.8060    -1.2370     0.0220 nu         1 9O5      -0.929100
     23 CAS          3.5120     0.0590     0.0540 c3         1 9O5       0.229800
     24 CAR          5.0360    -0.1460     0.1470 c3         1 9O5      -0.049100
     25 CAK          5.7860     1.1800     0.1820 ca         1 9O5      -0.083300
     26 CAF          6.0580     1.8100     1.4120 ca         1 9O5      -0.103500
     27 CAG          6.7430     3.0370     1.4440 ca         1 9O5      -0.108500
     28 CAH          7.1600     3.6410     0.2460 ca         1 9O5      -0.107000
     29 CAI          6.8900     3.0180    -0.9840 ca         1 9O5      -0.108500
     30 CAJ          6.2050     1.7910    -1.0160 ca         1 9O5      -0.103500
     31 H1          -7.9670     3.1080     2.0580 hc         1 9O5       0.060033
     32 H2          -7.8160     3.5130     0.4080 hc         1 9O5       0.060033
     33 H3          -9.2910     2.5910     0.9340 hc         1 9O5       0.060033
     34 H4          -5.6250     2.4130     1.5170 hc         1 9O5       0.063700
     35 H5          -5.5030     0.6210     1.3780 hc         1 9O5       0.063700
     36 H6          -5.5280     0.8580    -1.1100 hc         1 9O5       0.059700
     37 H7          -5.6780     2.5980    -0.9630 hc         1 9O5       0.059700
     38 H8          -3.4330    -0.2960    -0.3570 ha         1 9O5       0.135000
     39 H9          -3.7380     3.9990    -0.3980 ha         1 9O5       0.109000
     40 H10         -1.2670     4.1850    -0.2530 ha         1 9O5       0.112000
     41 H11          0.1400     2.1690    -0.1600 ha         1 9O5       0.133000
     42 H12         -2.2460    -4.1420    -0.2600 ha         1 9O5       0.132000
     43 H13         -2.0250    -6.5220    -0.0540 hn         1 9O5       0.463500
     44 H14         -0.4770    -7.3060     0.0400 hn         1 9O5       0.463500
     45 H15          1.5910    -6.0760    -0.0160 ha         1 9O5       0.113000
     46 H16          2.7170    -3.8870     0.0350 ha         1 9O5       0.101000
     47 H17          3.3760    -2.0790     0.0620 hn         1 9O5       0.491000
     48 H18          3.2830     0.6360    -0.8530 h1         1 9O5       0.061200
     49 H19          3.1770     0.6490     0.9190 h1         1 9O5       0.061200
     50 H20          5.2680    -0.7310     1.0450 hc         1 9O5       0.050200
     51 H21          5.3720    -0.7440    -0.7090 hc         1 9O5       0.050200
     52 H22          5.7370     1.3500     2.3450 ha         1 9O5       0.111500
     53 H23          6.9500     3.5190     2.3970 ha         1 9O5       0.113500
     54 H24          7.6900     4.5910     0.2710 ha         1 9O5       0.114000
     55 H25          7.2110     3.4860    -1.9120 ha         1 9O5       0.113500
     56 H26          5.9980     1.3170    -1.9730 ha         1 9O5       0.111500
     57 CAE         -5.2550     1.7100    -0.4760 c3         1 9O5      -0.017100
@<TRIPOS>BOND
     1     1     2 ar  
     2     1     5 ar  
     3     1    17 ar  
     4     2     3 ar  
     5     2    21 ar  
     6     3     4 ar  
     7     3    22 1   
     8     4    16 ar  
     9     5    16 ar  
    10     6     7 1   
    11     6    31 1   
    12     6    32 1   
    13     6    33 1   
    14     7     8 2   
    15     7     9 1   
    16     9    34 1   
    17     9    35 1   
    18     9    57 1   
    19    10    11 ar  
    20    10    12 ar  
    21    10    57 1   
    22    11    15 ar  
    23    11    38 1   
    24    12    13 ar  
    25    12    39 1   
    26    13    14 ar  
    27    13    40 1   
    28    14    15 ar  
    29    14    41 1   
    30    15    16 1   
    31    17    18 ar  
    32    17    42 1   
    33    18    19 1   
    34    18    20 ar  
    35    19    43 1   
    36    19    44 1   
    37    20    21 ar  
    38    20    45 1   
    39    21    46 1   
    40    22    23 1   
    41    22    47 1   
    42    23    24 1   
    43    23    48 1   
    44    23    49 1   
    45    24    25 1   
    46    24    50 1   
    47    24    51 1   
    48    25    26 ar  
    49    25    30 ar  
    50    26    27 ar  
    51    26    52 1   
    52    27    28 ar  
    53    27    53 1   
    54    28    29 ar  
    55    28    54 1   
    56    29    30 ar  
    57    29    55 1   
    58    30    56 1   
    59    36    57 1   
    60    37    57 1   
@<TRIPOS>SUBSTRUCTURE
     1 9O5         1 TEMP              0 ****  ****    0 ROOT
