@<TRIPOS>MOLECULE
9O6
   21    21     1     0     0
SMALL
No Charge or Current Charge


@<TRIPOS>ATOM
      1 CAA          3.0870     0.6360     1.1090 ca         1 9O6      -0.125500
      2 CAB          3.9030    -0.1200     0.2510 ca         1 9O6      -0.129000
      3 CAC          3.3450    -0.7440    -0.8760 ca         1 9O6      -0.125500
      4 CAD          1.9710    -0.6140    -1.1460 ca         1 9O6      -0.088500
      5 CAE          1.1430     0.1400    -0.2870 ca         1 9O6      -0.076300
      6 CAF          1.7140     0.7670     0.8410 ca         1 9O6      -0.088500
      7 CAG         -0.3510     0.2870    -0.5900 c3         1 9O6       0.230600
      8 CAH         -1.2660    -0.3040     0.5200 c3         1 9O6      -0.002700
      9 CAI         -2.7650    -0.0830     0.1330 c          1 9O6       0.693000
     10 FAK         -0.6650     1.5920    -0.7850 f          1 9O6      -0.263000
     11 OAJ         -0.9610    -1.7150     0.7600 oh         1 9O6      -0.704000
     12 OAL         -3.2610    -0.8590    -0.6740 o          1 9O6      -0.707500
     13 OAM         -3.4190     0.7350     0.7660 o          1 9O6      -0.707500
     14 H1           3.5190     1.1220     1.9810 ha         1 9O6       0.095000
     15 H2           4.9660    -0.2210     0.4590 ha         1 9O6       0.092000
     16 H3           3.9750    -1.3290    -1.5420 ha         1 9O6       0.095000
     17 H4           1.5500    -1.1020    -2.0220 ha         1 9O6       0.117500
     18 H5           1.0920     1.3590     1.5090 ha         1 9O6       0.117500
     19 H6          -0.5730    -0.2380    -1.5280 h1         1 9O6       0.052700
     20 H7          -1.0850     0.2660     1.4410 h1         1 9O6       0.045700
     21 H8          -1.5620    -2.2320     0.1710 ho         1 9O6       0.477000
@<TRIPOS>BOND
     1     1     2 ar  
     2     1     6 ar  
     3     1    14 1   
     4     2     3 ar  
     5     2    15 1   
     6     3     4 ar  
     7     3    16 1   
     8     4     5 ar  
     9     4    17 1   
    10     5     6 ar  
    11     5     7 1   
    12     6    18 1   
    13     7     8 1   
    14     7    10 1   
    15     7    19 1   
    16     8     9 1   
    17     8    11 1   
    18     8    20 1   
    19     9    12 1   
    20     9    13 1   
    21    11    21 1   
@<TRIPOS>SUBSTRUCTURE
     1 9O6         1 TEMP              0 ****  ****    0 ROOT
