@<TRIPOS>MOLECULE
9O6
   21    21     1     0     0
SMALL
abcg2


@<TRIPOS>ATOM
      1 CAA          3.1220     0.7150     1.0410 ca         1 9O6      -0.125500
      2 CAB          3.8400    -0.1790     0.2570 ca         1 9O6      -0.129000
      3 CAC          3.2010    -0.8550    -0.7740 ca         1 9O6      -0.125500
      4 CAD          1.8520    -0.6360    -1.0180 ca         1 9O6      -0.088500
      5 CAE          1.1260     0.2560    -0.2360 ca         1 9O6      -0.076300
      6 CAF          1.7720     0.9310     0.7970 ca         1 9O6      -0.088500
      7 CAG         -0.3410     0.4590    -0.4840 c3         1 9O6       0.230600
      8 CAH         -1.2020    -0.4040     0.4490 c3         1 9O6      -0.002700
      9 CAI         -2.7090    -0.2880     0.1080 c          1 9O6       0.693000
     10 FAK         -0.6500     1.8010    -0.2870 f          1 9O6      -0.263000
     11 OAJ         -0.8030    -1.7380     0.3180 oh         1 9O6      -0.704000
     12 OAL         -3.2030    -1.3400    -0.3620 o          1 9O6      -0.707500
     13 OAM         -3.2800     0.7890     0.3140 o          1 9O6      -0.707500
     14 H1           3.6140     1.2460     1.8450 ha         1 9O6       0.095000
     15 H2           4.8920    -0.3460     0.4480 ha         1 9O6       0.092000
     16 H3           3.7550    -1.5510    -1.3910 ha         1 9O6       0.095000
     17 H4           1.3620    -1.1590    -1.8300 ha         1 9O6       0.117500
     18 H5           1.2270     1.6290     1.4200 ha         1 9O6       0.117500
     19 H6          -0.5780     0.2130    -1.5250 h1         1 9O6       0.052700
     20 H7          -1.0400    -0.0520     1.4780 h1         1 9O6       0.045700
     21 H8          -1.6010    -2.1460    -0.0760 ho         1 9O6       0.477000
@<TRIPOS>BOND
     1     1     2 ar  
     2     1     6 ar  
     3     1    14 1   
     4     2     3 ar  
     5     2    15 1   
     6     3     4 ar  
     7     3    16 1   
     8     4     5 ar  
     9     4    17 1   
    10     5     6 ar  
    11     5     7 1   
    12     6    18 1   
    13     7     8 1   
    14     7    10 1   
    15     7    19 1   
    16     8     9 1   
    17     8    11 1   
    18     8    20 1   
    19     9    12 1   
    20     9    13 1   
    21    11    21 1   
@<TRIPOS>SUBSTRUCTURE
     1 9O6         1 TEMP              0 ****  ****    0 ROOT
