@<TRIPOS>MOLECULE
9O8
   35    36     1     0     0
SMALL
No Charge or Current Charge


@<TRIPOS>ATOM
      1 C13        -38.7020     3.0130    18.9400 ca         1 9O8      -0.135500
      2 C15        -37.4280     4.1910    16.7260 ca         1 9O8      -0.011500
      3 C17        -37.4310     2.5650    18.5410 ca         1 9O8      -0.049000
      4 C21        -35.2750     8.2320    21.3710 c3         1 9O8      -0.211100
      5 C03        -38.3970     6.8910    19.3290 cc         1 9O8       0.196300
      6 C04        -37.5880     6.2080    20.2600 cc         1 9O8       0.165300
      7 C06        -37.9250     7.3550    17.9520 c3         1 9O8       0.191500
      8 C07        -36.1330     5.8320    20.0220 c3         1 9O8       0.160300
      9 C12        -38.7010     4.6480    17.1290 ca         1 9O8      -0.273500
     10 C14        -39.3410     4.0460    18.2340 ca         1 9O8      -0.011500
     11 C16        -36.7970     3.1530    17.4330 ca         1 9O8      -0.135500
     12 C19        -35.0890     6.8560    22.0310 c          1 9O8       0.604100
     13 N01        -39.4920     6.5090    21.0740 na         1 9O8       0.125600
     14 N02        -39.6000     7.1080    19.8220 nd         1 9O8      -0.472800
     15 N05        -38.2520     5.9470    21.3670 nd         1 9O8      -0.459800
     16 N08        -38.9850     7.3730    16.9060 n7         1 9O8      -0.885300
     17 O10        -40.9770     5.9190    16.4550 o          1 9O8      -0.541500
     18 O11        -38.9740     6.0030    14.8540 o          1 9O8      -0.541500
     19 O18        -35.4030     5.7450    21.2740 os         1 9O8      -0.440100
     20 O20        -34.6410     6.7470    23.1610 o          1 9O8      -0.429000
     21 S09        -39.5340     5.9570    16.2050 sy         1 9O8       1.144600
     22 H131       -39.1940     2.5570    19.7950 ha         1 9O8       0.120500
     23 H151       -36.9260     4.6340    15.8660 ha         1 9O8       0.137500
     24 H171       -36.9400     1.7620    19.0870 ha         1 9O8       0.120000
     25 H211       -34.9160     9.0420    22.0160 hc         1 9O8       0.066700
     26 H212       -34.7680     8.2510    20.4010 hc         1 9O8       0.066700
     27 H213       -36.3260     8.3880    21.1130 hc         1 9O8       0.066700
     28 H061       -37.0720     6.7480    17.6240 h1         1 9O8       0.064200
     29 H062       -37.5380     8.3740    18.0870 h1         1 9O8       0.064200
     30 H072       -36.1230     4.8520    19.5300 h1         1 9O8       0.070700
     31 H071       -35.6550     6.5350    19.3300 h1         1 9O8       0.070700
     32 H141       -40.3280     4.3810    18.5520 ha         1 9O8       0.137500
     33 H161       -35.8160     2.8030    17.1210 ha         1 9O8       0.120500
     34 H1         -40.2690     6.4900    21.7390 hn         1 9O8       0.407000
     35 H081       -38.6300     7.8360    16.0700 hn         1 9O8       0.496000
@<TRIPOS>BOND
     1     1     3 ar  
     2     1    10 ar  
     3     1    22 1   
     4     2     9 ar  
     5     2    11 ar  
     6     2    23 1   
     7     3    11 ar  
     8     3    24 1   
     9     4    12 1   
    10     4    25 1   
    11     4    26 1   
    12     4    27 1   
    13     5     6 1   
    14     5     7 1   
    15     5    14 2   
    16     6     8 1   
    17     6    15 2   
    18     7    16 1   
    19     7    28 1   
    20     7    29 1   
    21     8    19 1   
    22     8    30 1   
    23     8    31 1   
    24     9    10 ar  
    25     9    21 1   
    26    10    32 1   
    27    11    33 1   
    28    12    19 1   
    29    12    20 2   
    30    13    14 1   
    31    13    15 1   
    32    13    34 1   
    33    16    21 1   
    34    16    35 1   
    35    17    21 2   
    36    18    21 2   
@<TRIPOS>SUBSTRUCTURE
     1 9O8         1 TEMP              0 ****  ****    0 ROOT
