@<TRIPOS>MOLECULE
9O8
   35    36     1     0     0
SMALL
abcg2


@<TRIPOS>ATOM
      1 C13        -39.3450     3.0580    18.6550 ca         1 9O8      -0.135500
      2 C15        -37.2390     4.1120    17.1630 ca         1 9O8      -0.011500
      3 C17        -38.1050     2.4290    18.6480 ca         1 9O8      -0.049000
      4 C21        -35.3300     8.4260    20.5890 c3         1 9O8      -0.211100
      5 C03        -38.3460     6.7200    19.6530 cc         1 9O8       0.196300
      6 C04        -37.3770     5.9150    20.2680 cc         1 9O8       0.165300
      7 C06        -38.2530     7.6300    18.4720 c3         1 9O8       0.191500
      8 C07        -35.9350     5.7160    19.9550 c3         1 9O8       0.160300
      9 C12        -38.4800     4.7310    17.1850 ca         1 9O8      -0.273500
     10 C14        -39.5420     4.2120    17.9160 ca         1 9O8      -0.011500
     11 C16        -37.0590     2.9490    17.9010 ca         1 9O8      -0.135500
     12 C19        -34.7880     7.2910    21.4070 c          1 9O8       0.604100
     13 N01        -39.1920     5.6850    21.2360 na         1 9O8       0.125600
     14 N02        -39.4870     6.5470    20.3030 nd         1 9O8      -0.472800
     15 N05        -37.9600     5.2690    21.2700 nd         1 9O8      -0.459800
     16 N08        -39.2050     7.2590    17.4290 n7         1 9O8      -0.885300
     17 O10        -39.8830     6.0610    15.3710 o          1 9O8      -0.541500
     18 O11        -37.4530     6.5790    15.6540 o          1 9O8      -0.541500
     19 O18        -35.0880     6.0350    21.0590 os         1 9O8      -0.440100
     20 O20        -34.0880     7.4420    22.3740 o          1 9O8      -0.429000
     21 S09        -38.7320     6.2090    16.2490 sy         1 9O8       1.144600
     22 H131       -40.1590     2.6490    19.2380 ha         1 9O8       0.120500
     23 H151       -36.4210     4.5250    16.5900 ha         1 9O8       0.137500
     24 H171       -37.9560     1.5280    19.2290 ha         1 9O8       0.120000
     25 H211       -34.9110     9.3600    20.9510 hc         1 9O8       0.066700
     26 H212       -35.0850     8.3250    19.5320 hc         1 9O8       0.066700
     27 H213       -36.4160     8.4840    20.6770 hc         1 9O8       0.066700
     28 H061       -37.2280     7.6720    18.0960 h1         1 9O8       0.064200
     29 H062       -38.5050     8.6480    18.7700 h1         1 9O8       0.064200
     30 H072       -35.7390     4.6630    19.7580 h1         1 9O8       0.070700
     31 H071       -35.6470     6.2630    19.0570 h1         1 9O8       0.070700
     32 H141       -40.5030     4.7080    17.9290 ha         1 9O8       0.137500
     33 H161       -36.0950     2.4570    17.8950 ha         1 9O8       0.120500
     34 H1         -39.8830     5.3600    21.8970 hn         1 9O8       0.407000
     35 H081       -39.7320     8.0340    17.0430 hn         1 9O8       0.496000
@<TRIPOS>BOND
     1     1     3 ar  
     2     1    10 ar  
     3     1    22 1   
     4     2     9 ar  
     5     2    11 ar  
     6     2    23 1   
     7     3    11 ar  
     8     3    24 1   
     9     4    12 1   
    10     4    25 1   
    11     4    26 1   
    12     4    27 1   
    13     5     6 1   
    14     5     7 1   
    15     5    14 2   
    16     6     8 1   
    17     6    15 2   
    18     7    16 1   
    19     7    28 1   
    20     7    29 1   
    21     8    19 1   
    22     8    30 1   
    23     8    31 1   
    24     9    10 ar  
    25     9    21 1   
    26    10    32 1   
    27    11    33 1   
    28    12    19 1   
    29    12    20 2   
    30    13    14 1   
    31    13    15 1   
    32    13    34 1   
    33    16    21 1   
    34    16    35 1   
    35    17    21 2   
    36    18    21 2   
@<TRIPOS>SUBSTRUCTURE
     1 9O8         1 TEMP              0 ****  ****    0 ROOT
