@<TRIPOS>MOLECULE
9OB
   44    46     1     0     0
SMALL
abcg2


@<TRIPOS>ATOM
      1 C13        -11.8720     2.7470   -19.0570 ca         1 9OB      -0.011500
      2 C15        -10.0230     2.3260   -17.5750 ca         1 9OB      -0.061000
      3 C17        -13.0050     8.4410   -19.1970 c3         1 9OB       0.230100
      4 C20        -12.7520     7.3980   -16.3420 ca         1 9OB      -0.094300
      5 C21        -12.6790     6.1160   -15.8000 ca         1 9OB      -0.115500
      6 C22        -13.6720     5.6410   -14.9520 ca         1 9OB      -0.112500
      7 C24        -14.8460     7.7200   -15.1790 ca         1 9OB      -0.112500
      8 C01        -13.2560     6.0000   -20.1460 cc         1 9OB       0.168300
      9 C02        -12.6180     7.2030   -19.9470 cd         1 9OB      -0.199300
     10 C06        -14.5860     5.5460   -19.6490 c3         1 9OB       0.210500
     11 C11        -12.7030     2.8690   -17.9510 ca         1 9OB      -0.303500
     12 C12        -12.2150     2.7030   -16.6610 ca         1 9OB      -0.011500
     13 C14        -10.5260     2.4800   -18.8600 ca         1 9OB      -0.137000
     14 C16        -10.8670     2.4330   -16.4780 ca         1 9OB      -0.137000
     15 C19        -11.6390     7.8920   -17.2330 c3         1 9OB       0.212100
     16 C23        -14.7640     6.4420   -14.6440 ca         1 9OB      -0.098000
     17 C25        -13.8450     8.1970   -16.0170 ca         1 9OB      -0.115500
     18 N03        -11.4770     7.0610   -20.6430 na         1 9OB      -0.012200
     19 N04        -11.4010     5.8830   -21.2350 nd         1 9OB      -0.190800
     20 N05        -12.4750     5.2390   -20.9470 nc         1 9OB      -0.352000
     21 N07        -14.5940     4.8550   -18.3660 n7         1 9OB      -0.909300
     22 N18        -12.0780     8.8930   -18.1810 n7         1 9OB      -0.873400
     23 O09        -15.0990     2.8860   -16.9510 o          1 9OB      -0.538000
     24 O10        -14.8460     2.6330   -19.4440 o          1 9OB      -0.538000
     25 S08        -14.4230     3.2360   -18.1900 sy         1 9OB       1.173600
     26 H131       -12.2560     2.8730   -20.0580 ha         1 9OB       0.143000
     27 H151        -8.9720     2.1170   -17.4280 ha         1 9OB       0.114000
     28 H171       -13.1480     9.2600   -19.9040 h1         1 9OB       0.075200
     29 H172       -13.9830     8.2590   -18.7450 h1         1 9OB       0.075200
     30 H211       -11.8370     5.4790   -16.0470 ha         1 9OB       0.120500
     31 H221       -13.5950     4.6450   -14.5360 ha         1 9OB       0.119500
     32 H241       -15.6920     8.3530   -14.9440 ha         1 9OB       0.119500
     33 H061       -15.2530     6.4020   -19.5390 h1         1 9OB       0.080700
     34 H062       -15.0530     4.8980   -20.3890 h1         1 9OB       0.080700
     35 H121       -12.8730     2.7720   -15.8060 ha         1 9OB       0.143000
     36 H141        -9.8700     2.3880   -19.7160 ha         1 9OB       0.118500
     37 H161       -10.4810     2.3010   -15.4760 ha         1 9OB       0.118500
     38 H191       -11.1600     7.0200   -17.7010 h1         1 9OB       0.043700
     39 H192       -10.8690     8.3560   -16.6100 h1         1 9OB       0.043700
     40 H231       -15.5460     6.0710   -13.9940 ha         1 9OB       0.122000
     41 H251       -13.9180     9.1970   -16.4250 ha         1 9OB       0.120500
     42 H1         -10.7260     7.7260   -20.7610 hn         1 9OB       0.376000
     43 H071       -14.3040     5.3910   -17.5540 hn         1 9OB       0.496000
     44 H181       -11.2780     9.3430   -18.6030 hn         1 9OB       0.419000
@<TRIPOS>BOND
     1     1    11 ar  
     2     1    13 ar  
     3     1    26 1   
     4     2    13 ar  
     5     2    14 ar  
     6     2    27 1   
     7     3     9 1   
     8     3    22 1   
     9     3    28 1   
    10     3    29 1   
    11     4     5 ar  
    12     4    15 1   
    13     4    17 ar  
    14     5     6 ar  
    15     5    30 1   
    16     6    16 ar  
    17     6    31 1   
    18     7    16 ar  
    19     7    17 ar  
    20     7    32 1   
    21     8     9 2   
    22     8    10 1   
    23     8    20 1   
    24     9    18 1   
    25    10    21 1   
    26    10    33 1   
    27    10    34 1   
    28    11    12 ar  
    29    11    25 1   
    30    12    14 ar  
    31    12    35 1   
    32    13    36 1   
    33    14    37 1   
    34    15    22 1   
    35    15    38 1   
    36    15    39 1   
    37    16    40 1   
    38    17    41 1   
    39    18    19 1   
    40    18    42 1   
    41    19    20 2   
    42    21    25 1   
    43    21    43 1   
    44    22    44 1   
    45    23    25 2   
    46    24    25 2   
@<TRIPOS>SUBSTRUCTURE
     1 9OB         1 TEMP              0 ****  ****    0 ROOT
