@<TRIPOS>MOLECULE
9OB
   44    46     1     0     0
SMALL
No Charge or Current Charge


@<TRIPOS>ATOM
      1 C13        -11.6140     3.2350   -18.6670 ca         1 9OB      -0.011500
      2 C15        -10.3190     2.7450   -16.6620 ca         1 9OB      -0.061000
      3 C17        -13.2690     8.2330   -19.1920 c3         1 9OB       0.230100
      4 C20        -12.4300     7.3500   -16.3750 ca         1 9OB      -0.094300
      5 C21        -12.4840     5.9940   -15.9970 ca         1 9OB      -0.115500
      6 C22        -13.3560     5.5720   -14.9780 ca         1 9OB      -0.112500
      7 C24        -14.1260     7.8600   -14.6900 ca         1 9OB      -0.112500
      8 C01        -13.5750     5.9660   -20.4530 cc         1 9OB       0.168300
      9 C02        -12.9110     7.1190   -20.1460 cd         1 9OB      -0.199300
     10 C06        -14.8820     5.4530   -19.8670 c3         1 9OB       0.210500
     11 C11        -12.8010     2.8840   -17.9890 ca         1 9OB      -0.303500
     12 C12        -12.7400     2.4570   -16.6450 ca         1 9OB      -0.011500
     13 C14        -10.3790     3.1670   -18.0000 ca         1 9OB      -0.137000
     14 C16        -11.4990     2.3890   -15.9870 ca         1 9OB      -0.137000
     15 C19        -11.4710     7.7960   -17.4790 c3         1 9OB       0.212100
     16 C23        -14.1810     6.5050   -14.3270 ca         1 9OB      -0.098000
     17 C25        -13.2510     8.2820   -15.7060 ca         1 9OB      -0.115500
     18 N03        -11.8310     7.1100   -21.0100 na         1 9OB      -0.012200
     19 N04        -11.8580     5.9860   -21.7940 nd         1 9OB      -0.190800
     20 N05        -12.9220     5.3050   -21.4580 nc         1 9OB      -0.352000
     21 N07        -14.7040     4.5960   -18.6640 n7         1 9OB      -0.909300
     22 N18        -12.1040     8.7370   -18.4310 n7         1 9OB      -0.873400
     23 O09        -15.4140     2.2670   -18.0700 o          1 9OB      -0.538000
     24 O10        -14.1640     2.7180   -20.2660 o          1 9OB      -0.538000
     25 S08        -14.3810     2.9650   -18.8390 sy         1 9OB       1.173600
     26 H131       -11.6420     3.5560   -19.7070 ha         1 9OB       0.143000
     27 H151        -9.3610     2.6920   -16.1490 ha         1 9OB       0.114000
     28 H171       -13.7170     9.0490   -19.7760 h1         1 9OB       0.075200
     29 H172       -14.0520     7.8790   -18.5060 h1         1 9OB       0.075200
     30 H211       -11.8400     5.2690   -16.4860 ha         1 9OB       0.120500
     31 H221       -13.3900     4.5250   -14.6880 ha         1 9OB       0.119500
     32 H241       -14.7600     8.5850   -14.1830 ha         1 9OB       0.119500
     33 H061       -15.4760     6.3360   -19.5950 h1         1 9OB       0.080700
     34 H062       -15.4590     4.9370   -20.6490 h1         1 9OB       0.080700
     35 H121       -13.6450     2.1780   -16.1080 ha         1 9OB       0.143000
     36 H141        -9.4650     3.4390   -18.5240 ha         1 9OB       0.118500
     37 H161       -11.4530     2.0620   -14.9510 ha         1 9OB       0.118500
     38 H191       -11.0900     6.9130   -18.0110 h1         1 9OB       0.043700
     39 H192       -10.6060     8.2780   -17.0030 h1         1 9OB       0.043700
     40 H231       -14.8560     6.1780   -13.5380 ha         1 9OB       0.122000
     41 H251       -13.2130     9.3350   -15.9780 ha         1 9OB       0.120500
     42 H1         -11.0990     7.8080   -21.1110 hn         1 9OB       0.376000
     43 H071       -13.8940     4.9140   -18.1360 hn         1 9OB       0.496000
     44 H181       -11.3920     9.0690   -19.0900 hn         1 9OB       0.419000
@<TRIPOS>BOND
     1     1    11 ar  
     2     1    13 ar  
     3     1    26 1   
     4     2    13 ar  
     5     2    14 ar  
     6     2    27 1   
     7     3     9 1   
     8     3    22 1   
     9     3    28 1   
    10     3    29 1   
    11     4     5 ar  
    12     4    15 1   
    13     4    17 ar  
    14     5     6 ar  
    15     5    30 1   
    16     6    16 ar  
    17     6    31 1   
    18     7    16 ar  
    19     7    17 ar  
    20     7    32 1   
    21     8     9 2   
    22     8    10 1   
    23     8    20 1   
    24     9    18 1   
    25    10    21 1   
    26    10    33 1   
    27    10    34 1   
    28    11    12 ar  
    29    11    25 1   
    30    12    14 ar  
    31    12    35 1   
    32    13    36 1   
    33    14    37 1   
    34    15    22 1   
    35    15    38 1   
    36    15    39 1   
    37    16    40 1   
    38    17    41 1   
    39    18    19 1   
    40    18    42 1   
    41    19    20 2   
    42    21    25 1   
    43    21    43 1   
    44    22    44 1   
    45    23    25 2   
    46    24    25 2   
@<TRIPOS>SUBSTRUCTURE
     1 9OB         1 TEMP              0 ****  ****    0 ROOT
