@<TRIPOS>MOLECULE
9OE
   27    28     1     0     0
SMALL
abcg2


@<TRIPOS>ATOM
      1 CAA          4.3160     2.2140    -0.3390 c3         1 9OE       0.156900
      2 CAE         -0.5510     0.8120     0.0500 ce         1 9OE      -0.055200
      3 CAF          0.7850    -1.3290     0.1810 ca         1 9OE      -0.054000
      4 CAG          2.0210    -1.9520     0.1700 ca         1 9OE      -0.136000
      5 CAH          1.8750     0.8000    -0.0750 ca         1 9OE      -0.134000
      6 CAL         -2.9900     1.3250     0.1100 cd         1 9OE       0.762500
      7 CAM          0.6860     0.0580     0.0580 ca         1 9OE      -0.088800
      8 CAN          3.1880    -1.2170     0.0370 ca         1 9OE       0.149100
      9 CAO          3.1090     0.1830    -0.0860 ca         1 9OE       0.038100
     10 CAP         -4.1560    -0.5520     0.3530 c          1 9OE       0.784100
     11 CAQ         -1.8310     0.4090     0.1450 cd         1 9OE      -0.142000
     12 NAI         -4.1830     0.7920     0.2230 nc         1 9OE      -0.752100
     13 OAC         -5.0950    -1.2960     0.4760 o          1 9OE      -0.479100
     14 OAJ          4.2970     0.8050    -0.2110 os         1 9OE      -0.366100
     15 SAK         -2.4600    -1.2090     0.3270 ss         1 9OE      -0.333200
     16 H1           3.7750     2.5460    -1.2290 h1         1 9OE       0.043033
     17 H2           3.8890     2.7050     0.5400 h1         1 9OE       0.043033
     18 H3           5.3590     2.5020    -0.4320 h1         1 9OE       0.043033
     19 H4          -0.3930     1.8800    -0.0520 ha         1 9OE       0.157000
     20 H6          -0.0880    -1.9550     0.2890 ha         1 9OE       0.141000
     21 H7           2.0860    -3.0290     0.2640 ha         1 9OE       0.139000
     22 H8           1.8060     1.8760    -0.1690 ha         1 9OE       0.111000
     23 H9          -1.9630     3.0810    -0.1400 hn         1 9OE       0.509000
     24 H10         -3.6710     3.2140    -0.0590 hn         1 9OE       0.509000
     25 H11          5.0910    -1.2200    -0.0700 ho         1 9OE       0.486000
     26 OAD          4.3680    -1.8520     0.0280 oh         1 9OE      -0.524100
     27 NAB         -2.8530     2.6290    -0.0320 nv         1 9OE      -1.008200
@<TRIPOS>BOND
     1     1    14 1   
     2     1    16 1   
     3     1    17 1   
     4     1    18 1   
     5     2     7 1   
     6     2    11 2   
     7     2    19 1   
     8     3     4 ar  
     9     3     7 ar  
    10     3    20 1   
    11     4     8 ar  
    12     4    21 1   
    13     5     7 ar  
    14     5     9 ar  
    15     5    22 1   
    16     6    11 1   
    17     6    12 2   
    18     6    27 1   
    19     8     9 ar  
    20     8    26 1   
    21     9    14 1   
    22    10    12 1   
    23    10    13 2   
    24    10    15 1   
    25    11    15 1   
    26    23    27 1   
    27    24    27 1   
    28    25    26 1   
@<TRIPOS>SUBSTRUCTURE
     1 9OE         1 TEMP              0 ****  ****    0 ROOT
