@<TRIPOS>MOLECULE
9OE
   27    28     1     0     0
SMALL
No Charge or Current Charge


@<TRIPOS>ATOM
      1 CAA          4.3620     2.1390    -0.8480 c3         1 9OE       0.156900
      2 CAE         -0.5440     0.8850     0.4770 ce         1 9OE      -0.055200
      3 CAF          0.8070    -1.2430     0.6990 ca         1 9OE      -0.054000
      4 CAG          2.0280    -1.9320     0.6080 ca         1 9OE      -0.136000
      5 CAH          1.9060     0.8070    -0.0200 ca         1 9OE      -0.134000
      6 CAL         -3.0090     1.2980     0.2520 cd         1 9OE       0.762500
      7 CAM          0.7360     0.1280     0.3750 ca         1 9OE      -0.088800
      8 CAN          3.1860    -1.2560     0.2000 ca         1 9OE       0.149100
      9 CAO          3.1370     0.1170    -0.1150 ca         1 9OE       0.038100
     10 CAP         -4.0080    -0.5150    -0.6070 c          1 9OE       0.784100
     11 CAQ         -1.8270     0.5000     0.1330 cd         1 9OE      -0.142000
     12 NAI         -4.1270     0.7680    -0.1290 nc         1 9OE      -0.752100
     13 OAC         -4.9400    -1.1860    -1.0160 o          1 9OE      -0.479100
     14 OAJ          4.3110     0.7400    -0.5060 os         1 9OE      -0.366100
     15 SAK         -2.2700    -1.0550    -0.5540 ss         1 9OE      -0.333200
     16 H1           3.7030     2.3570    -1.6980 h1         1 9OE       0.043033
     17 H2           4.0580     2.7600     0.0030 h1         1 9OE       0.043033
     18 H3           5.3840     2.4240    -1.1290 h1         1 9OE       0.043033
     19 H4          -0.4310     1.9000     0.8590 ha         1 9OE       0.157000
     20 H6          -0.0790    -1.7740     1.0370 ha         1 9OE       0.141000
     21 H7           2.0760    -2.9890     0.8580 ha         1 9OE       0.139000
     22 H8           1.8400     1.8650    -0.2570 ha         1 9OE       0.111000
     23 H9          -2.2560     3.1230     0.5720 hn         1 9OE       0.509000
     24 H10         -3.9600     3.0060     0.5260 hn         1 9OE       0.509000
     25 H11          5.0390    -1.2690    -0.1840 ho         1 9OE       0.486000
     26 OAD          4.3710    -1.9270     0.1120 oh         1 9OE      -0.524100
     27 NAB         -3.0760     2.5480     0.7100 nv         1 9OE      -1.008200
@<TRIPOS>BOND
     1     1    14 1   
     2     1    16 1   
     3     1    17 1   
     4     1    18 1   
     5     2     7 1   
     6     2    11 2   
     7     2    19 1   
     8     3     4 ar  
     9     3     7 ar  
    10     3    20 1   
    11     4     8 ar  
    12     4    21 1   
    13     5     7 ar  
    14     5     9 ar  
    15     5    22 1   
    16     6    11 1   
    17     6    12 2   
    18     6    27 1   
    19     8     9 ar  
    20     8    26 1   
    21     9    14 1   
    22    10    12 1   
    23    10    13 2   
    24    10    15 1   
    25    11    15 1   
    26    23    27 1   
    27    24    27 1   
    28    25    26 1   
@<TRIPOS>SUBSTRUCTURE
     1 9OE         1 TEMP              0 ****  ****    0 ROOT
