@<TRIPOS>MOLECULE
9OF
   36    38     1     0     0
SMALL
abcg2


@<TRIPOS>ATOM
      1 C7         -16.7430    14.4290   -37.9120 ca         1 9OF      -0.230300
      2 C4         -14.6290    12.9810   -38.7530 ca         1 9OF       0.159900
      3 C5         -17.2290    12.5960   -36.2900 ca         1 9OF      -0.199500
      4 C6         -18.1350    13.4040   -35.5890 ca         1 9OF      -0.017300
      5 C3         -18.9570    12.8470   -34.6250 ca         1 9OF      -0.154000
      6 C2         -17.9880    10.6680   -35.0260 ca         1 9OF      -0.210000
      7 C1         -17.1680    11.2350   -35.9930 ca         1 9OF      -0.019000
      8 C8         -18.8920    11.4800   -34.3370 ca         1 9OF       0.156100
      9 C9         -16.4000    13.1960   -37.3450 ca         1 9OF       0.213500
     10 C10        -15.9740    14.8000   -39.0450 ca         1 9OF       0.375900
     11 C11        -18.1340    14.8710   -35.8830 c6         1 9OF      -0.032100
     12 C12        -17.9500    15.2110   -37.3770 c6         1 9OF       0.021300
     13 C13        -19.2090    14.7980   -38.1610 c3         1 9OF      -0.085100
     14 C14        -17.7850    16.7440   -37.4290 c3         1 9OF      -0.085100
     15 C15        -19.7140     9.6460   -33.0380 c3         1 9OF       0.149900
     16 N16        -15.3310    12.4730   -37.7560 nb         1 9OF      -0.225000
     17 N17        -14.8970    14.0870   -39.4300 nb         1 9OF      -0.270000
     18 N18        -16.2310    15.8880   -39.8180 nv         1 9OF      -1.068900
     19 O19        -19.7450    11.0320   -33.3810 os         1 9OF      -0.350100
     20 H1         -13.7460    12.4280   -39.0640 h5         1 9OF       0.045100
     21 H2         -19.6600    13.4650   -34.0790 ha         1 9OF       0.128000
     22 H3         -17.9220     9.6100   -34.8260 ha         1 9OF       0.120000
     23 H4         -16.4730    10.6100   -36.5350 ha         1 9OF       0.135000
     24 H5         -17.3150    15.3380   -35.3240 hc         1 9OF       0.057200
     25 H6         -19.0590    15.3300   -35.5290 hc         1 9OF       0.057200
     26 H7         -20.0760    15.3540   -37.7970 hc         1 9OF       0.037700
     27 H8         -19.0940    15.0060   -39.2260 hc         1 9OF       0.037700
     28 H9         -19.4110    13.7320   -38.0440 hc         1 9OF       0.037700
     29 H10        -16.7790    17.0490   -37.1380 hc         1 9OF       0.037700
     30 H11        -18.0100    17.1730   -38.4040 hc         1 9OF       0.037700
     31 H12        -18.4910    17.1930   -36.7280 hc         1 9OF       0.037700
     32 H13        -20.4650     9.5150   -32.2630 h1         1 9OF       0.043367
     33 H14        -19.9630     9.0230   -33.9010 h1         1 9OF       0.043367
     34 H15        -18.7330     9.3600   -32.6520 h1         1 9OF       0.043367
     35 H16        -15.7240    15.9360   -40.6880 hn         1 9OF       0.486000
     36 H17        -17.1330    16.3250   -39.8060 hn         1 9OF       0.486000
@<TRIPOS>BOND
     1     1     9 ar  
     2     1    10 ar  
     3     1    12 1   
     4     2    16 ar  
     5     2    17 ar  
     6     2    20 1   
     7     3     4 ar  
     8     3     7 ar  
     9     3     9 1   
    10     4     5 ar  
    11     4    11 1   
    12     5     8 ar  
    13     5    21 1   
    14     6     7 ar  
    15     6     8 ar  
    16     6    22 1   
    17     7    23 1   
    18     8    19 1   
    19     9    16 ar  
    20    10    17 ar  
    21    10    18 1   
    22    11    12 1   
    23    11    24 1   
    24    11    25 1   
    25    12    13 1   
    26    12    14 1   
    27    13    26 1   
    28    13    27 1   
    29    13    28 1   
    30    14    29 1   
    31    14    30 1   
    32    14    31 1   
    33    15    19 1   
    34    15    32 1   
    35    15    33 1   
    36    15    34 1   
    37    18    35 1   
    38    18    36 1   
@<TRIPOS>SUBSTRUCTURE
     1 9OF         1 TEMP              0 ****  ****    0 ROOT
