@<TRIPOS>MOLECULE
9OF
   36    38     1     0     0
SMALL
No Charge or Current Charge


@<TRIPOS>ATOM
      1 C7         -16.7220    14.4420   -37.9390 ca         1 9OF      -0.230300
      2 C4         -14.7400    12.9090   -38.9000 ca         1 9OF       0.159900
      3 C5         -17.2750    12.5430   -36.3390 ca         1 9OF      -0.199500
      4 C6         -18.2130    13.3450   -35.6620 ca         1 9OF      -0.017300
      5 C3         -19.0150    12.7940   -34.6460 ca         1 9OF      -0.154000
      6 C2         -17.9500    10.6370   -34.9530 ca         1 9OF      -0.210000
      7 C1         -17.1400    11.1840   -35.9630 ca         1 9OF      -0.019000
      8 C8         -18.8970    11.4430   -34.2930 ca         1 9OF       0.156100
      9 C9         -16.4750    13.1220   -37.3920 ca         1 9OF       0.213500
     10 C10        -15.8970    14.8520   -39.0160 ca         1 9OF       0.375900
     11 C11        -18.2770    14.8410   -35.9400 c6         1 9OF      -0.032100
     12 C12        -17.9540    15.2420   -37.4080 c6         1 9OF       0.021300
     13 C13        -19.1770    14.9070   -38.3130 c3         1 9OF      -0.085100
     14 C14        -17.7770    16.7990   -37.4100 c3         1 9OF      -0.085100
     15 C15        -19.6670     9.5930   -32.8520 c3         1 9OF       0.149900
     16 N16        -15.4710    12.3840   -37.9080 nb         1 9OF      -0.225000
     17 N17        -14.9050    14.1000   -39.4860 nb         1 9OF      -0.270000
     18 N18        -16.0460    15.9990   -39.7270 nv         1 9OF      -1.068900
     19 O19        -19.7150    10.9630   -33.2900 os         1 9OF      -0.350100
     20 H1         -13.9330    12.2890   -39.2850 h5         1 9OF       0.045100
     21 H2         -19.7250    13.4200   -34.1120 ha         1 9OF       0.128000
     22 H3         -17.8260     9.5880   -34.6990 ha         1 9OF       0.120000
     23 H4         -16.4230    10.5310   -36.4570 ha         1 9OF       0.135000
     24 H5         -17.5550    15.3280   -35.2680 hc         1 9OF       0.057200
     25 H6         -19.2610    15.2350   -35.6500 hc         1 9OF       0.057200
     26 H7         -20.0810    15.4340   -37.9840 hc         1 9OF       0.037700
     27 H8         -18.9930    15.1880   -39.3570 hc         1 9OF       0.037700
     28 H9         -19.3990    13.8330   -38.3000 hc         1 9OF       0.037700
     29 H10        -16.7960    17.0880   -37.0120 hc         1 9OF       0.037700
     30 H11        -17.8910    17.2440   -38.4030 hc         1 9OF       0.037700
     31 H12        -18.5350    17.2850   -36.7840 hc         1 9OF       0.037700
     32 H13        -20.3980     9.4240   -32.0510 h1         1 9OF       0.043367
     33 H14        -19.9050     8.9100   -33.6780 h1         1 9OF       0.043367
     34 H15        -18.6730     9.3420   -32.4620 h1         1 9OF       0.043367
     35 H16        -15.5390    16.0880   -40.6040 hn         1 9OF       0.486000
     36 H17        -16.9190    16.5090   -39.6500 hn         1 9OF       0.486000
@<TRIPOS>BOND
     1     1     9 ar  
     2     1    10 ar  
     3     1    12 1   
     4     2    16 ar  
     5     2    17 ar  
     6     2    20 1   
     7     3     4 ar  
     8     3     7 ar  
     9     3     9 1   
    10     4     5 ar  
    11     4    11 1   
    12     5     8 ar  
    13     5    21 1   
    14     6     7 ar  
    15     6     8 ar  
    16     6    22 1   
    17     7    23 1   
    18     8    19 1   
    19     9    16 ar  
    20    10    17 ar  
    21    10    18 1   
    22    11    12 1   
    23    11    24 1   
    24    11    25 1   
    25    12    13 1   
    26    12    14 1   
    27    13    26 1   
    28    13    27 1   
    29    13    28 1   
    30    14    29 1   
    31    14    30 1   
    32    14    31 1   
    33    15    19 1   
    34    15    32 1   
    35    15    33 1   
    36    15    34 1   
    37    18    35 1   
    38    18    36 1   
@<TRIPOS>SUBSTRUCTURE
     1 9OF         1 TEMP              0 ****  ****    0 ROOT
