@<TRIPOS>MOLECULE
9OG
   44    46     1     0     0
SMALL
bcc


@<TRIPOS>ATOM
      1 C14         -1.9250     0.2750     0.2600 c3         1 9OG       0.158800
      2 C12          0.2900     0.6360     1.1420 c3         1 9OG       0.204100
      3 C11          6.6040     2.1000    -0.4460 c3         1 9OG      -0.056800
      4 C10          3.8270    -0.4390     0.2210 ca         1 9OG       0.451600
      5 C15         -2.7270    -0.0430    -1.0010 c3         1 9OG      -0.040100
      6 N28         -9.4050    -0.4420     0.5480 n1         1 9OG      -0.364800
      7 C27         -8.2860    -0.3740     0.2810 cg         1 9OG       0.234800
      8 C24         -6.9010    -0.2920    -0.0490 ca         1 9OG      -0.023000
      9 C23         -6.1220    -1.4500    -0.0730 ca         1 9OG      -0.087500
     10 C22         -4.7800    -1.3600    -0.3970 ca         1 9OG      -0.131000
     11 C25         -6.3290     0.9450    -0.3490 ca         1 9OG      -0.087500
     12 C26         -4.9860     1.0140    -0.6700 ca         1 9OG      -0.131000
     13 C21         -4.1930    -0.1330    -0.7000 ca         1 9OG      -0.054300
     14 N13         -0.5080     0.3370    -0.0360 n7         1 9OG      -0.801200
     15 C08          1.7520     0.6930     0.7900 ca         1 9OG      -0.073300
     16 C07          2.3980     1.9330     0.6380 ca         1 9OG      -0.146000
     17 C09          2.4630    -0.4650     0.5740 ca         1 9OG      -0.158300
     18 C05          4.4680     0.8150     0.0730 ca         1 9OG      -0.185300
     19 C06          3.7250     1.9910     0.2870 ca         1 9OG      -0.096000
     20 N01          4.4660    -1.6220     0.0440 nb         1 9OG      -0.758000
     21 C02          5.7360    -1.5990    -0.2790 ca         1 9OG       0.682200
     22 N02          6.3660    -2.7810    -0.5020 nv         1 9OG      -0.956500
     23 C03          6.4720    -0.3850    -0.4460 ca         1 9OG      -0.294300
     24 C04          5.8560     0.8150    -0.2750 ca         1 9OG       0.005700
     25 H1          -2.3100     1.2030     0.7120 h1         1 9OG       0.033200
     26 H2          -2.0870    -0.5170     0.9980 h1         1 9OG       0.033200
     27 H3          -0.0070     1.5770     1.6280 h1         1 9OG       0.037700
     28 H4           0.1190    -0.1580     1.8740 h1         1 9OG       0.037700
     29 H5           6.1700     2.7040    -1.2440 hc         1 9OG       0.048033
     30 H6           6.5700     2.7020     0.4640 hc         1 9OG       0.048033
     31 H7           7.6490     1.9170    -0.6890 hc         1 9OG       0.048033
     32 H8          -2.5480     0.7360    -1.7490 hc         1 9OG       0.059200
     33 H9          -2.3700    -0.9850    -1.4220 hc         1 9OG       0.059200
     34 H10         -6.5650    -2.4090     0.1580 ha         1 9OG       0.143500
     35 H11         -4.1790    -2.2600    -0.4180 ha         1 9OG       0.138000
     36 H12         -6.9340     1.8410    -0.3310 ha         1 9OG       0.143500
     37 H13         -4.5480     1.9760    -0.9070 ha         1 9OG       0.138000
     38 H14         -0.3480     1.0620    -0.7280 hn         1 9OG       0.353800
     39 H16          1.8440     2.8480     0.8060 ha         1 9OG       0.127000
     40 H17          1.9830    -1.4310     0.6870 ha         1 9OG       0.152000
     41 H18          4.2020     2.9560     0.1740 ha         1 9OG       0.128000
     42 H19          5.9070    -3.6160    -0.1800 hn         1 9OG       0.421300
     43 H20          7.3710    -2.8060    -0.4680 hn         1 9OG       0.421300
     44 H21          7.5220    -0.4330    -0.7080 ha         1 9OG       0.136000
@<TRIPOS>BOND
     1     1     5 1   
     2     1    14 1   
     3     1    25 1   
     4     1    26 1   
     5     2    14 1   
     6     2    15 1   
     7     2    27 1   
     8     2    28 1   
     9     3    24 1   
    10     3    29 1   
    11     3    30 1   
    12     3    31 1   
    13     4    17 ar  
    14     4    18 ar  
    15     4    20 ar  
    16     5    13 1   
    17     5    32 1   
    18     5    33 1   
    19     6     7 3   
    20     7     8 1   
    21     8     9 ar  
    22     8    11 ar  
    23     9    10 ar  
    24     9    34 1   
    25    10    13 ar  
    26    10    35 1   
    27    11    12 ar  
    28    11    36 1   
    29    12    13 ar  
    30    12    37 1   
    31    14    38 1   
    32    15    16 ar  
    33    15    17 ar  
    34    16    19 ar  
    35    16    39 1   
    36    17    40 1   
    37    18    19 ar  
    38    18    24 ar  
    39    19    41 1   
    40    20    21 ar  
    41    21    22 1   
    42    21    23 ar  
    43    22    42 1   
    44    22    43 1   
    45    23    24 ar  
    46    23    44 1   
@<TRIPOS>SUBSTRUCTURE
     1 9OG         1 TEMP              0 ****  ****    0 ROOT
