@<TRIPOS>MOLECULE
9OG
   44    46     1     0     0
SMALL
No Charge or Current Charge


@<TRIPOS>ATOM
      1 C14         -1.9530     0.2480     0.3740 c3         1 9OG       0.158800
      2 C12          0.3520     0.5570     1.2590 c3         1 9OG       0.204100
      3 C11          6.6430     2.1610    -0.5280 c3         1 9OG      -0.056800
      4 C10          3.9060    -0.4760     0.2170 ca         1 9OG       0.321000
      5 C15         -2.7490    -0.0240    -0.9170 c3         1 9OG      -0.040100
      6 N28         -9.5820    -0.4310     0.3100 n1         1 9OG      -0.454000
      7 C27         -8.4350    -0.3700     0.0990 cg         1 9OG       0.324000
      8 C24         -7.0220    -0.2840    -0.1550 ca         1 9OG      -0.023000
      9 C23         -6.2170    -1.4360    -0.0740 ca         1 9OG      -0.069500
     10 C22         -4.8350    -1.3510    -0.3220 ca         1 9OG      -0.113000
     11 C25         -6.4350     0.9530    -0.4850 ca         1 9OG      -0.069500
     12 C26         -5.0540     1.0350    -0.7330 ca         1 9OG      -0.113000
     13 C21         -4.2470    -0.1160    -0.6540 ca         1 9OG      -0.054300
     14 N13         -0.5080     0.3240     0.0860 n7         1 9OG      -0.856400
     15 C08          1.8120     0.6460     0.8380 ca         1 9OG      -0.073300
     16 C07          2.4340     1.8950     0.6770 ca         1 9OG      -0.128000
     17 C09          2.5540    -0.5270     0.6060 ca         1 9OG      -0.075000
     18 C05          4.5280     0.7950     0.0580 ca         1 9OG      -0.120000
     19 C06          3.7810     1.9730     0.2900 ca         1 9OG      -0.078000
     20 N01          4.5740    -1.6350     0.0080 nb         1 9OG      -0.758000
     21 C02          5.8420    -1.5540    -0.3590 ca         1 9OG       0.616900
     22 N02          6.3700    -2.7690    -0.5190 nv         1 9OG      -1.066900
     23 C03          6.5520    -0.3700    -0.5410 ca         1 9OG      -0.211000
     24 C04          5.8890     0.8500    -0.3320 ca         1 9OG       0.005700
     25 H1          -2.3050     1.1890     0.8190 h1         1 9OG       0.033200
     26 H2          -2.1570    -0.5580     1.0930 h1         1 9OG       0.033200
     27 H3           0.0650     1.4880     1.7670 h1         1 9OG       0.037700
     28 H4           0.2380    -0.2600     1.9860 h1         1 9OG       0.037700
     29 H5           6.1740     2.7730    -1.3080 hc         1 9OG       0.048033
     30 H6           6.6630     2.7470     0.3990 hc         1 9OG       0.048033
     31 H7           7.6830     1.9910    -0.8290 hc         1 9OG       0.048033
     32 H8          -2.5430     0.7700    -1.6440 hc         1 9OG       0.059200
     33 H9          -2.3890    -0.9570    -1.3700 hc         1 9OG       0.059200
     34 H10         -6.6580    -2.3980     0.1820 ha         1 9OG       0.125500
     35 H11         -4.2220    -2.2470    -0.2540 ha         1 9OG       0.120000
     36 H12         -7.0470     1.8510    -0.5500 ha         1 9OG       0.125500
     37 H13         -4.6110     1.9960    -0.9850 ha         1 9OG       0.120000
     38 H14         -0.3510     1.0960    -0.5720 hn         1 9OG       0.409000
     39 H16          1.8730     2.8110     0.8510 ha         1 9OG       0.109000
     40 H17          2.0760    -1.4940     0.7250 ha         1 9OG       0.134000
     41 H18          4.2290     2.9560     0.1750 ha         1 9OG       0.110000
     42 H19          5.8160    -3.5180    -0.1220 hn         1 9OG       0.476500
     43 H20          7.3760    -2.8570    -0.4320 hn         1 9OG       0.476500
     44 H21          7.5950    -0.3980    -0.8410 ha         1 9OG       0.118000
@<TRIPOS>BOND
     1     1     5 1   
     2     1    14 1   
     3     1    25 1   
     4     1    26 1   
     5     2    14 1   
     6     2    15 1   
     7     2    27 1   
     8     2    28 1   
     9     3    24 1   
    10     3    29 1   
    11     3    30 1   
    12     3    31 1   
    13     4    17 ar  
    14     4    18 ar  
    15     4    20 ar  
    16     5    13 1   
    17     5    32 1   
    18     5    33 1   
    19     6     7 3   
    20     7     8 1   
    21     8     9 ar  
    22     8    11 ar  
    23     9    10 ar  
    24     9    34 1   
    25    10    13 ar  
    26    10    35 1   
    27    11    12 ar  
    28    11    36 1   
    29    12    13 ar  
    30    12    37 1   
    31    14    38 1   
    32    15    16 ar  
    33    15    17 ar  
    34    16    19 ar  
    35    16    39 1   
    36    17    40 1   
    37    18    19 ar  
    38    18    24 ar  
    39    19    41 1   
    40    20    21 ar  
    41    21    22 1   
    42    21    23 ar  
    43    22    42 1   
    44    22    43 1   
    45    23    24 ar  
    46    23    44 1   
@<TRIPOS>SUBSTRUCTURE
     1 9OG         1 TEMP              0 ****  ****    0 ROOT
