@<TRIPOS>MOLECULE
9OH
   53    53     1     0     0
SMALL
No Charge or Current Charge


@<TRIPOS>ATOM
      1 C1           0.4620    -0.2240    -9.6660 c          1 9OH       0.717000
      2 C2           0.8700    -0.7610    -8.2820 c3         1 9OH      -0.203400
      3 C3           0.0360    -0.0730    -7.1740 c3         1 9OH      -0.053400
      4 C4           0.3910    -0.5630    -5.7520 c3         1 9OH      -0.079400
      5 C5          -0.4440     0.1240    -4.6490 c3         1 9OH      -0.074400
      6 C6          -0.0880    -0.3660    -3.2280 c3         1 9OH      -0.077400
      7 C7          -0.9230     0.3210    -2.1250 c3         1 9OH      -0.071400
      8 C8          -0.5660    -0.1730    -0.7020 c3         1 9OH      -0.107400
      9 C9          -1.4200     0.4650     0.4220 c3         1 9OH       0.196500
     10 C10         -1.1330    -0.1390     1.7800 c2         1 9OH      -0.218200
     11 C11         -1.8120     0.1340     2.9100 c2         1 9OH      -0.233200
     12 C12         -1.5460    -0.4540     4.2550 cx         1 9OH       0.128500
     13 C13         -0.3540    -0.0050     5.0530 cx         1 9OH       0.086300
     14 C14         -0.4030    -0.0180     6.5770 c3         1 9OH      -0.065400
     15 C15          0.9930     0.1270     7.2220 c3         1 9OH      -0.072400
     16 C16          0.9510     0.1150     8.7660 c3         1 9OH      -0.075400
     17 C17          2.3470     0.2600     9.4100 c3         1 9OH      -0.075400
     18 C18          2.3050     0.2480    10.9500 c3         1 9OH      -0.088100
     19 O19         -0.4510    -0.7820   -10.2550 o          1 9OH      -0.743500
     20 O20          1.0370     0.7650   -10.0940 o          1 9OH      -0.743500
     21 O21         -1.1530     1.8650     0.4940 oh         1 9OH      -0.652000
     22 O22         -0.3690    -1.2860     4.3850 op         1 9OH      -0.439000
     23 H21          1.9170    -0.5120    -8.0670 hc         1 9OH       0.013700
     24 H22          0.6470    -1.8320    -8.2050 hc         1 9OH       0.013700
     25 H31         -1.0300    -0.2550    -7.3610 hc         1 9OH       0.038200
     26 H32          0.1880     1.0120    -7.2290 hc         1 9OH       0.038200
     27 H41          1.4560    -0.3800    -5.5640 hc         1 9OH       0.023700
     28 H42          0.2370    -1.6480    -5.6960 hc         1 9OH       0.023700
     29 H51         -1.5090    -0.0580    -4.8370 hc         1 9OH       0.035200
     30 H52         -0.2900     1.2090    -4.7050 hc         1 9OH       0.035200
     31 H61          0.9770    -0.1830    -3.0400 hc         1 9OH       0.031200
     32 H62         -0.2420    -1.4510    -3.1730 hc         1 9OH       0.031200
     33 H71         -1.9880     0.1380    -2.3120 hc         1 9OH       0.043200
     34 H72         -0.7700     1.4060    -2.1850 hc         1 9OH       0.043200
     35 H81          0.4970     0.0170    -0.5060 hc         1 9OH       0.042200
     36 H82         -0.7030    -1.2610    -0.6670 hc         1 9OH       0.042200
     37 H91         -2.4800     0.2950     0.1810 h1         1 9OH       0.081700
     38 H101        -0.3080    -0.8530     1.7950 ha         1 9OH       0.188000
     39 H111        -2.6380     0.8480     2.8870 ha         1 9OH       0.185000
     40 H121        -2.4220    -0.8230     4.7890 h1         1 9OH       0.084700
     41 H131         0.2980     0.7500     4.6120 h1         1 9OH       0.086700
     42 H141        -0.8670    -0.9480     6.9290 hc         1 9OH       0.048200
     43 H142        -1.0430     0.8030     6.9210 hc         1 9OH       0.048200
     44 H151         1.4520     1.0640     6.8810 hc         1 9OH       0.046200
     45 H152         1.6360    -0.6910     6.8720 hc         1 9OH       0.046200
     46 H161         0.4930    -0.8220     9.1070 hc         1 9OH       0.035700
     47 H162         0.3070     0.9320     9.1150 hc         1 9OH       0.035700
     48 H171         2.8080     1.1970     9.0740 hc         1 9OH       0.038700
     49 H172         2.9930    -0.5560     9.0650 hc         1 9OH       0.038700
     50 H181         3.3160     0.3530    11.3610 hc         1 9OH       0.030033
     51 H182         1.6930     1.0760    11.3280 hc         1 9OH       0.030033
     52 H183         1.8810    -0.6930    11.3200 hc         1 9OH       0.030033
     53 H211        -0.2880     1.9540     0.9480 ho         1 9OH       0.439000
@<TRIPOS>BOND
     1     1     2 1   
     2     1    19 1   
     3     1    20 1   
     4     2     3 1   
     5     2    23 1   
     6     2    24 1   
     7     3     4 1   
     8     3    25 1   
     9     3    26 1   
    10     4     5 1   
    11     4    27 1   
    12     4    28 1   
    13     5     6 1   
    14     5    29 1   
    15     5    30 1   
    16     6     7 1   
    17     6    31 1   
    18     6    32 1   
    19     7     8 1   
    20     7    33 1   
    21     7    34 1   
    22     8     9 1   
    23     8    35 1   
    24     8    36 1   
    25     9    10 1   
    26     9    21 1   
    27     9    37 1   
    28    10    11 2   
    29    10    38 1   
    30    11    12 1   
    31    11    39 1   
    32    12    13 1   
    33    12    22 1   
    34    12    40 1   
    35    13    14 1   
    36    13    22 1   
    37    13    41 1   
    38    14    15 1   
    39    14    42 1   
    40    14    43 1   
    41    15    16 1   
    42    15    44 1   
    43    15    45 1   
    44    16    17 1   
    45    16    46 1   
    46    16    47 1   
    47    17    18 1   
    48    17    48 1   
    49    17    49 1   
    50    18    50 1   
    51    18    51 1   
    52    18    52 1   
    53    21    53 1   
@<TRIPOS>SUBSTRUCTURE
     1 9OH         1 TEMP              0 ****  ****    0 ROOT
