@<TRIPOS>MOLECULE
9OH
   53    53     1     0     0
SMALL
abcg2


@<TRIPOS>ATOM
      1 C1           1.8360     0.1100    -8.7600 c          1 9OH       0.717000
      2 C2           1.8590    -0.2430    -7.2630 c3         1 9OH      -0.203400
      3 C3           0.5790     0.0180    -6.4860 c3         1 9OH      -0.053400
      4 C4           0.7180    -0.3190    -5.0060 c3         1 9OH      -0.079400
      5 C5          -0.5460    -0.0640    -4.1960 c3         1 9OH      -0.074400
      6 C6          -0.3690    -0.3630    -2.7130 c3         1 9OH      -0.077400
      7 C7          -1.6230    -0.1110    -1.8850 c3         1 9OH      -0.071400
      8 C8          -1.3810    -0.3380    -0.3980 c3         1 9OH      -0.107400
      9 C9          -2.6290    -0.1850     0.4770 c3         1 9OH       0.196500
     10 C10         -2.2750    -0.4560     1.9110 c2         1 9OH      -0.218200
     11 C11         -2.4870     0.3770     2.9240 c2         1 9OH      -0.233200
     12 C12         -2.0660     0.1260     4.3180 cx         1 9OH       0.128500
     13 C13         -0.6580     0.2070     4.7200 cx         1 9OH       0.086300
     14 C14         -0.2200     0.6160     6.0950 c3         1 9OH      -0.065400
     15 C15          1.0270    -0.1300     6.5610 c3         1 9OH      -0.072400
     16 C16          1.5320     0.3570     7.9130 c3         1 9OH      -0.075400
     17 C17          2.7730    -0.3860     8.3940 c3         1 9OH      -0.075400
     18 C18          3.2810     0.1190     9.7380 c3         1 9OH      -0.088100
     19 O19          0.7830     0.5790    -9.2350 o          1 9OH      -0.743500
     20 O20          2.8960    -0.1040    -9.3870 o          1 9OH      -0.743500
     21 O21         -3.2730     1.0520     0.2880 oh         1 9OH      -0.652000
     22 O22         -1.3190    -1.0460     4.5880 op         1 9OH      -0.439000
     23 H21          2.6860     0.3060    -6.7980 hc         1 9OH       0.013700
     24 H22          2.1370    -1.2990    -7.1650 hc         1 9OH       0.013700
     25 H31         -0.2440    -0.5620    -6.9150 hc         1 9OH       0.038200
     26 H32          0.2900     1.0680    -6.5910 hc         1 9OH       0.038200
     27 H41          1.5420     0.2640    -4.5790 hc         1 9OH       0.023700
     28 H42          1.0110    -1.3700    -4.8970 hc         1 9OH       0.023700
     29 H51         -1.3670    -0.6680    -4.5980 hc         1 9OH       0.035200
     30 H52         -0.8530     0.9810    -4.3200 hc         1 9OH       0.035200
     31 H61          0.4520     0.2470    -2.3200 hc         1 9OH       0.031200
     32 H62         -0.0540    -1.4050    -2.5870 hc         1 9OH       0.031200
     33 H71         -2.4300    -0.7660    -2.2320 hc         1 9OH       0.043200
     34 H72         -1.9660     0.9130    -2.0540 hc         1 9OH       0.043200
     35 H81         -0.6040     0.3500    -0.0430 hc         1 9OH       0.042200
     36 H82         -0.9830    -1.3450    -0.2420 hc         1 9OH       0.042200
     37 H91         -3.3550    -0.9430     0.1570 h1         1 9OH       0.081700
     38 H101        -1.7880    -1.4090     2.0940 ha         1 9OH       0.188000
     39 H111        -2.9970     1.3230     2.7680 ha         1 9OH       0.185000
     40 H121        -2.8110     0.3720     5.0770 h1         1 9OH       0.084700
     41 H131         0.0640     0.4060     3.9270 h1         1 9OH       0.086700
     42 H141        -1.0360     0.4700     6.8100 hc         1 9OH       0.048200
     43 H142        -0.0150     1.6910     6.0730 hc         1 9OH       0.048200
     44 H151         1.8200    -0.0160     5.8140 hc         1 9OH       0.046200
     45 H152         0.8100    -1.2010     6.6160 hc         1 9OH       0.046200
     46 H161         0.7370     0.2560     8.6590 hc         1 9OH       0.035700
     47 H162         1.7540     1.4280     7.8510 hc         1 9OH       0.035700
     48 H171         3.5640    -0.2930     7.6440 hc         1 9OH       0.038700
     49 H172         2.5490    -1.4540     8.4650 hc         1 9OH       0.038700
     50 H181         4.1590    -0.4370    10.0680 hc         1 9OH       0.030033
     51 H182         3.5580     1.1730     9.6850 hc         1 9OH       0.030033
     52 H183         2.5170     0.0180    10.5110 hc         1 9OH       0.030033
     53 H211        -2.6360     1.7560     0.4580 ho         1 9OH       0.439000
@<TRIPOS>BOND
     1     1     2 1   
     2     1    19 1   
     3     1    20 1   
     4     2     3 1   
     5     2    23 1   
     6     2    24 1   
     7     3     4 1   
     8     3    25 1   
     9     3    26 1   
    10     4     5 1   
    11     4    27 1   
    12     4    28 1   
    13     5     6 1   
    14     5    29 1   
    15     5    30 1   
    16     6     7 1   
    17     6    31 1   
    18     6    32 1   
    19     7     8 1   
    20     7    33 1   
    21     7    34 1   
    22     8     9 1   
    23     8    35 1   
    24     8    36 1   
    25     9    10 1   
    26     9    21 1   
    27     9    37 1   
    28    10    11 2   
    29    10    38 1   
    30    11    12 1   
    31    11    39 1   
    32    12    13 1   
    33    12    22 1   
    34    12    40 1   
    35    13    14 1   
    36    13    22 1   
    37    13    41 1   
    38    14    15 1   
    39    14    42 1   
    40    14    43 1   
    41    15    16 1   
    42    15    44 1   
    43    15    45 1   
    44    16    17 1   
    45    16    46 1   
    46    16    47 1   
    47    17    18 1   
    48    17    48 1   
    49    17    49 1   
    50    18    50 1   
    51    18    51 1   
    52    18    52 1   
    53    21    53 1   
@<TRIPOS>SUBSTRUCTURE
     1 9OH         1 TEMP              0 ****  ****    0 ROOT
