@<TRIPOS>MOLECULE
9OI
   13    13     1     0     0
SMALL
No Charge or Current Charge


@<TRIPOS>ATOM
      1 C02        -34.0200   -14.3710   -23.1360 c3         1 9OI       0.127500
      2 C03        -34.6990   -14.9170   -21.8890 cc         1 9OI       0.239300
      3 C04        -36.0190   -15.2080   -21.7010 cd         1 9OI       0.106900
      4 C06        -34.9620   -15.6540   -19.9100 cd         1 9OI       0.429900
      5 N01        -33.9630   -12.8810   -23.2020 n8         1 9OI      -0.996200
      6 N07        -34.0170   -15.2070   -20.7360 nc         1 9OI      -0.683000
      7 O05        -36.2250   -15.6820   -20.4440 os         1 9OI      -0.260000
      8 H021       -34.5560   -14.7430   -24.0210 h1         1 9OI       0.049200
      9 H022       -32.9940   -14.7630   -23.1820 h1         1 9OI       0.049200
     10 H041       -36.8710   -15.1230   -22.3630 h4         1 9OI       0.067100
     11 H061       -34.8330   -15.9900   -18.8870 h5         1 9OI       0.082100
     12 H011       -33.5410   -12.5980   -24.0970 hn         1 9OI       0.395500
     13 H012       -34.9180   -12.5040   -23.2550 hn         1 9OI       0.395500
@<TRIPOS>BOND
     1     1     2 1   
     2     1     5 1   
     3     1     8 1   
     4     1     9 1   
     5     2     3 2   
     6     2     6 1   
     7     3     7 1   
     8     3    10 1   
     9     4     6 2   
    10     4     7 1   
    11     4    11 1   
    12     5    12 1   
    13     5    13 1   
@<TRIPOS>SUBSTRUCTURE
     1 9OI         1 TEMP              0 ****  ****    0 ROOT
