@<TRIPOS>MOLECULE
9OI
   13    13     1     0     0
SMALL
bcc


@<TRIPOS>ATOM
      1 C02        -33.9070   -14.3130   -23.0170 c3         1 9OI       0.127500
      2 C03        -34.6460   -14.8450   -21.8340 cc         1 9OI       0.239300
      3 C04        -35.9330   -14.6650   -21.4690 cd         1 9OI       0.151300
      4 C06        -34.9770   -15.9550   -20.0630 cd         1 9OI       0.474300
      5 N01        -34.4620   -13.0480   -23.4780 n8         1 9OI      -0.885800
      6 N07        -34.0490   -15.6820   -20.9090 nc         1 9OI      -0.683000
      7 O05        -36.1470   -15.3770   -20.3330 os         1 9OI      -0.348800
      8 H021       -33.8940   -15.0880   -23.7960 h1         1 9OI       0.049200
      9 H022       -32.8660   -14.1650   -22.7290 h1         1 9OI       0.049200
     10 H041       -36.7620   -14.1060   -21.8690 h4         1 9OI       0.067100
     11 H061       -34.9140   -16.5750   -19.1800 h5         1 9OI       0.082100
     12 H011       -33.7890   -12.5990   -24.0850 hn         1 9OI       0.340300
     13 H012       -35.2720   -13.2230   -24.0600 hn         1 9OI       0.340300
@<TRIPOS>BOND
     1     1     2 1   
     2     1     5 1   
     3     1     8 1   
     4     1     9 1   
     5     2     3 2   
     6     2     6 1   
     7     3     7 1   
     8     3    10 1   
     9     4     6 2   
    10     4     7 1   
    11     4    11 1   
    12     5    12 1   
    13     5    13 1   
@<TRIPOS>SUBSTRUCTURE
     1 9OI         1 TEMP              0 ****  ****    0 ROOT
