@<TRIPOS>MOLECULE
9OJ
   47    49     1     0     0
SMALL
abcg2


@<TRIPOS>ATOM
      1 N25          9.1410     0.8570    -0.3030 n1         1 9OJ      -0.459000
      2 C24          8.0310     0.6570    -0.0610 cg         1 9OJ       0.326000
      3 C23          6.6590     0.4060     0.2360 ca         1 9OJ      -0.027000
      4 C02          6.0930    -0.8340    -0.0950 ca         1 9OJ      -0.031300
      5 C01          6.9000    -1.9030    -0.7650 c3         1 9OJ      -0.055800
      6 C22          5.9040     1.4020     0.8540 ca         1 9OJ      -0.066000
      7 C21          4.5730     1.1710     1.1490 ca         1 9OJ      -0.118000
      8 C04          3.9830    -0.0510     0.8360 ca         1 9OJ      -0.051300
      9 C03          4.7560    -1.0320     0.2180 ca         1 9OJ      -0.115000
     10 C05          2.5300    -0.2970     1.1160 c3         1 9OJ      -0.040100
     11 C06          1.6660     0.0080    -0.1060 c3         1 9OJ       0.160800
     12 N07          0.2660    -0.2050     0.1970 n7         1 9OJ      -0.862400
     13 C08         -0.5990     0.0430    -0.9420 c3         1 9OJ       0.204100
     14 C09         -2.0400    -0.1920    -0.5830 ca         1 9OJ      -0.070300
     15 C20         -2.9870     0.7800    -0.7890 ca         1 9OJ      -0.101000
     16 C19         -4.3450     0.5720    -0.4590 ca         1 9OJ       0.323000
     17 C12         -4.7260    -0.6710     0.0990 ca         1 9OJ      -0.120000
     18 C11         -3.7400    -1.6580     0.3050 ca         1 9OJ      -0.083000
     19 C10         -2.4290    -1.4270    -0.0220 ca         1 9OJ      -0.107000
     20 N18         -5.2210     1.5790    -0.6920 nb         1 9OJ      -0.761000
     21 C16         -6.4800     1.3910    -0.3800 ca         1 9OJ       0.617900
     22 N17         -7.3490     2.4180    -0.5690 nv         1 9OJ      -1.068900
     23 C15         -6.9630     0.1730     0.1850 ca         1 9OJ      -0.214000
     24 C13         -6.1040    -0.8560     0.4250 ca         1 9OJ       0.006700
     25 C14         -6.5880    -2.1450     1.0110 c3         1 9OJ      -0.056800
     26 H1           7.7890    -2.1590    -0.1870 hc         1 9OJ       0.051700
     27 H2           6.3140    -2.8100    -0.8950 hc         1 9OJ       0.051700
     28 H3           7.2390    -1.5810    -1.7520 hc         1 9OJ       0.051700
     29 H4           6.3620     2.3490     1.1030 ha         1 9OJ       0.125000
     30 H5           3.9930     1.9470     1.6320 ha         1 9OJ       0.119000
     31 H6           4.3010    -1.9850    -0.0260 ha         1 9OJ       0.119000
     32 H7           2.3730    -1.3370     1.4100 hc         1 9OJ       0.057700
     33 H8           2.2050     0.3260     1.9540 hc         1 9OJ       0.057700
     34 H9           1.8770     1.0310    -0.4560 h1         1 9OJ       0.034200
     35 H10          1.9490    -0.6610    -0.9250 h1         1 9OJ       0.034200
     36 H11         -0.0040     0.4170     0.9510 hn         1 9OJ       0.412000
     37 H13         -0.4860     1.0560    -1.3570 h1         1 9OJ       0.039200
     38 H14         -0.3070    -0.6470    -1.7400 h1         1 9OJ       0.039200
     39 H15         -2.7050     1.7390    -1.2090 ha         1 9OJ       0.125000
     40 H16         -4.0220    -2.6140     0.7280 ha         1 9OJ       0.111000
     41 H17         -1.6830    -2.1920     0.1490 ha         1 9OJ       0.126000
     42 H18         -7.0450     3.1750    -1.1590 hn         1 9OJ       0.476500
     43 H19         -8.3340     2.2210    -0.6000 hn         1 9OJ       0.476500
     44 H20         -8.0160     0.0760     0.4210 ha         1 9OJ       0.118000
     45 H21         -6.4110    -2.9770     0.3270 hc         1 9OJ       0.048367
     46 H22         -6.0680    -2.3790     1.9410 hc         1 9OJ       0.048367
     47 H23         -7.6540    -2.1060     1.2240 hc         1 9OJ       0.048367
@<TRIPOS>BOND
     1     1     2 3   
     2     2     3 1   
     3     3     4 ar  
     4     3     6 ar  
     5     4     5 1   
     6     4     9 ar  
     7     5    26 1   
     8     5    27 1   
     9     5    28 1   
    10     6     7 ar  
    11     6    29 1   
    12     7     8 ar  
    13     7    30 1   
    14     8     9 ar  
    15     8    10 1   
    16     9    31 1   
    17    10    11 1   
    18    10    32 1   
    19    10    33 1   
    20    11    12 1   
    21    11    34 1   
    22    11    35 1   
    23    12    13 1   
    24    12    36 1   
    25    13    14 1   
    26    13    37 1   
    27    13    38 1   
    28    14    15 ar  
    29    14    19 ar  
    30    15    16 ar  
    31    15    39 1   
    32    16    17 ar  
    33    16    20 ar  
    34    17    18 ar  
    35    17    24 ar  
    36    18    19 ar  
    37    18    40 1   
    38    19    41 1   
    39    20    21 ar  
    40    21    22 1   
    41    21    23 ar  
    42    22    42 1   
    43    22    43 1   
    44    23    24 ar  
    45    23    44 1   
    46    24    25 1   
    47    25    45 1   
    48    25    46 1   
    49    25    47 1   
@<TRIPOS>SUBSTRUCTURE
     1 9OJ         1 TEMP              0 ****  ****    0 ROOT
