@<TRIPOS>MOLECULE
9OJ
   47    49     1     0     0
SMALL
No Charge or Current Charge


@<TRIPOS>ATOM
      1 N25          9.2640     0.9240    -0.2660 n1         1 9OJ      -0.459000
      2 C24          8.1300     0.7370    -0.0590 cg         1 9OJ       0.326000
      3 C23          6.7290     0.5200     0.1980 ca         1 9OJ      -0.027000
      4 C02          6.1610    -0.7770     0.1510 ca         1 9OJ      -0.031300
      5 C01          7.0030    -2.0090    -0.1740 c3         1 9OJ      -0.055800
      6 C22          5.9140     1.6290     0.5000 ca         1 9OJ      -0.066000
      7 C21          4.5440     1.4570     0.7560 ca         1 9OJ      -0.118000
      8 C04          3.9720     0.1740     0.7140 ca         1 9OJ      -0.051300
      9 C03          4.7840    -0.9350     0.4110 ca         1 9OJ      -0.115000
     10 C05          2.4860    -0.0150     0.9850 c3         1 9OJ      -0.040100
     11 C06          1.6590    -0.0270    -0.3160 c3         1 9OJ       0.160800
     12 N07          0.2270    -0.2200    -0.0190 n7         1 9OJ      -0.862400
     13 C08         -0.6540    -0.2750    -1.1990 c3         1 9OJ       0.204100
     14 C09         -2.1060    -0.4480    -0.7730 ca         1 9OJ      -0.070300
     15 C20         -2.9560     0.6690    -0.6660 ca         1 9OJ      -0.101000
     16 C19         -4.3020     0.5320    -0.2760 ca         1 9OJ       0.323000
     17 C12         -4.8060    -0.7680     0.0140 ca         1 9OJ      -0.120000
     18 C11         -3.9510    -1.8880    -0.0930 ca         1 9OJ      -0.083000
     19 C10         -2.6120    -1.7260    -0.4830 ca         1 9OJ      -0.107000
     20 N18         -5.0750     1.6400    -0.1910 nb         1 9OJ      -0.761000
     21 C16         -6.3340     1.4800     0.1800 ca         1 9OJ       0.617900
     22 N17         -6.9720     2.6510     0.2110 nv         1 9OJ      -1.068900
     23 C15         -6.9350     0.2610     0.4840 ca         1 9OJ      -0.214000
     24 C13         -6.1610    -0.9070     0.4050 ca         1 9OJ       0.006700
     25 C14         -6.7930    -2.2550     0.7350 c3         1 9OJ      -0.056800
     26 H1           7.8090    -2.1410     0.5580 hc         1 9OJ       0.051700
     27 H2           6.4040    -2.9270    -0.1660 hc         1 9OJ       0.051700
     28 H3           7.4590    -1.9260    -1.1680 hc         1 9OJ       0.051700
     29 H4           6.3420     2.6300     0.5360 ha         1 9OJ       0.125000
     30 H5           3.9280     2.3240     0.9850 ha         1 9OJ       0.119000
     31 H6           4.3390    -1.9270     0.3750 ha         1 9OJ       0.119000
     32 H7           2.3200    -0.9570     1.5230 hc         1 9OJ       0.057700
     33 H8           2.1170     0.7830     1.6410 hc         1 9OJ       0.057700
     34 H9           1.8170     0.9220    -0.8470 h1         1 9OJ       0.034200
     35 H10          2.0270    -0.8360    -0.9620 h1         1 9OJ       0.034200
     36 H11         -0.0880     0.5590     0.5710 hn         1 9OJ       0.412000
     37 H13         -0.5600     0.6460    -1.7920 h1         1 9OJ       0.039200
     38 H14         -0.3700    -1.1120    -1.8510 h1         1 9OJ       0.039200
     39 H15         -2.5710     1.6600    -0.8870 ha         1 9OJ       0.125000
     40 H16         -4.3070    -2.8920     0.1230 ha         1 9OJ       0.111000
     41 H17         -1.9640    -2.5960    -0.5580 ha         1 9OJ       0.126000
     42 H18         -6.4840     3.4020    -0.2610 hn         1 9OJ       0.476500
     43 H19         -7.9810     2.6370     0.1120 hn         1 9OJ       0.476500
     44 H20         -7.9790     0.2240     0.7770 ha         1 9OJ       0.118000
     45 H21         -6.7480    -2.9330    -0.1260 hc         1 9OJ       0.048367
     46 H22         -6.2790    -2.7370     1.5750 hc         1 9OJ       0.048367
     47 H23         -7.8480    -2.1520     1.0140 hc         1 9OJ       0.048367
@<TRIPOS>BOND
     1     1     2 3   
     2     2     3 1   
     3     3     4 ar  
     4     3     6 ar  
     5     4     5 1   
     6     4     9 ar  
     7     5    26 1   
     8     5    27 1   
     9     5    28 1   
    10     6     7 ar  
    11     6    29 1   
    12     7     8 ar  
    13     7    30 1   
    14     8     9 ar  
    15     8    10 1   
    16     9    31 1   
    17    10    11 1   
    18    10    32 1   
    19    10    33 1   
    20    11    12 1   
    21    11    34 1   
    22    11    35 1   
    23    12    13 1   
    24    12    36 1   
    25    13    14 1   
    26    13    37 1   
    27    13    38 1   
    28    14    15 ar  
    29    14    19 ar  
    30    15    16 ar  
    31    15    39 1   
    32    16    17 ar  
    33    16    20 ar  
    34    17    18 ar  
    35    17    24 ar  
    36    18    19 ar  
    37    18    40 1   
    38    19    41 1   
    39    20    21 ar  
    40    21    22 1   
    41    21    23 ar  
    42    22    42 1   
    43    22    43 1   
    44    23    24 ar  
    45    23    44 1   
    46    24    25 1   
    47    25    45 1   
    48    25    46 1   
    49    25    47 1   
@<TRIPOS>SUBSTRUCTURE
     1 9OJ         1 TEMP              0 ****  ****    0 ROOT
