@<TRIPOS>MOLECULE
9OK
   42    43     1     0     0
SMALL
No Charge or Current Charge


@<TRIPOS>ATOM
      1 C4          -2.2940     0.9300     1.4650 c5         1 9OK       0.093300
      2 C5          -2.8400     1.6080     0.1710 c5         1 9OK       0.132300
      3 C6          -2.2750     3.0280    -0.1140 c3         1 9OK       0.166600
      4 CAF          3.1950    -0.2730    -1.0470 ca         1 9OK      -0.158000
      5 CAJ          4.4490     0.1990    -0.6220 ca         1 9OK       0.042100
      6 OAC          5.1650     1.0600    -1.4120 oh         1 9OK      -0.560100
      7 CAI          4.9710    -0.2150     0.6210 ca         1 9OK       0.118100
      8 OAB          6.1880     0.2480     1.0250 oh         1 9OK      -0.536100
      9 CAD          4.2420    -1.0960     1.4340 ca         1 9OK      -0.122000
     10 CAE          2.9870    -1.5670     1.0070 ca         1 9OK      -0.101000
     11 CAK          2.4600    -1.1600    -0.2350 ca         1 9OK      -0.080300
     12 CAH          1.0970    -1.6670    -0.6900 c3         1 9OK      -0.032100
     13 CAG         -0.0510    -0.8010    -0.1440 c3         1 9OK       0.170600
     14 OAA         -1.2880    -1.3590    -0.6270 os         1 9OK      -0.434000
     15 C2          -2.5590    -0.6770    -0.3690 c5         1 9OK       0.415000
     16 C1          -3.7290    -1.4490    -1.0810 c3         1 9OK       0.181600
     17 O1          -3.5650    -1.5650    -2.5170 oh         1 9OK      -0.688000
     18 O5          -2.4470     0.6820    -0.8760 os         1 9OK      -0.445000
     19 O6          -2.9570     3.6520    -1.2170 oh         1 9OK      -0.699000
     20 O4          -2.8200     1.4660     2.6900 oh         1 9OK      -0.710000
     21 C3          -2.8280    -0.5050     1.1910 c5         1 9OK       0.109300
     22 O3          -2.2990    -1.5120     2.0780 oh         1 9OK      -0.688000
     23 H1          -1.1960     0.9600     1.4810 h1         1 9OK       0.055700
     24 H2          -3.9380     1.6650     0.2010 h1         1 9OK       0.073700
     25 H3          -2.3950     3.6420     0.7880 h1         1 9OK       0.019700
     26 H4          -1.1990     2.9490    -0.3210 h1         1 9OK       0.019700
     27 H6           4.6540     1.2360    -2.2340 ho         1 9OK       0.474000
     28 H7           6.5020     0.8400     0.3040 ho         1 9OK       0.480000
     29 H8           4.6460    -1.4120     2.3920 ha         1 9OK       0.131000
     30 H9           2.4250    -2.2480     1.6420 ha         1 9OK       0.120000
     31 H10          1.0430    -1.6820    -1.7860 hc         1 9OK       0.063700
     32 H11          0.9520    -2.7030    -0.3600 hc         1 9OK       0.063700
     33 H12         -0.0090    -0.8130     0.9520 h1         1 9OK       0.029700
     34 H13          0.0800     0.2310    -0.4920 h1         1 9OK       0.029700
     35 H14         -3.8020    -2.4470    -0.6300 h1         1 9OK       0.031200
     36 H15         -4.6690    -0.9270    -0.8570 h1         1 9OK       0.031200
     37 H16         -4.3380    -2.0730    -2.8550 ho         1 9OK       0.500000
     38 H17         -2.5070     4.5130    -1.3830 ho         1 9OK       0.503000
     39 H18         -2.3070     2.2800     2.9100 ho         1 9OK       0.513000
     40 H19         -3.9180    -0.4840     1.3330 h1         1 9OK       0.054700
     41 H20         -2.3860    -1.1420     2.9880 ho         1 9OK       0.515000
     42 H5           2.7880     0.0460    -2.0040 ha         1 9OK       0.115000
@<TRIPOS>BOND
     1     1     2 1   
     2     1    20 1   
     3     1    21 1   
     4     1    23 1   
     5     2     3 1   
     6     2    18 1   
     7     2    24 1   
     8     3    19 1   
     9     3    25 1   
    10     3    26 1   
    11     4     5 ar  
    12     4    11 ar  
    13     4    42 1   
    14     5     6 1   
    15     5     7 ar  
    16     6    27 1   
    17     7     8 1   
    18     7     9 ar  
    19     8    28 1   
    20     9    10 ar  
    21     9    29 1   
    22    10    11 ar  
    23    10    30 1   
    24    11    12 1   
    25    12    13 1   
    26    12    31 1   
    27    12    32 1   
    28    13    14 1   
    29    13    33 1   
    30    13    34 1   
    31    14    15 1   
    32    15    16 1   
    33    15    18 1   
    34    15    21 1   
    35    16    17 1   
    36    16    35 1   
    37    16    36 1   
    38    17    37 1   
    39    19    38 1   
    40    20    39 1   
    41    21    22 1   
    42    21    40 1   
    43    22    41 1   
@<TRIPOS>SUBSTRUCTURE
     1 9OK         1 TEMP              0 ****  ****    0 ROOT
