@<TRIPOS>MOLECULE
9OK
   42    43     1     0     0
SMALL
abcg2


@<TRIPOS>ATOM
      1 C4          -2.3550     0.9790     1.4570 c5         1 9OK       0.093300
      2 C5          -2.6430     1.6150     0.0960 c5         1 9OK       0.132300
      3 C6          -1.7400     2.7790    -0.2260 c3         1 9OK       0.166600
      4 CAF          2.8750    -0.0380    -0.9520 ca         1 9OK      -0.158000
      5 CAJ          4.0910     0.4820    -0.5400 ca         1 9OK       0.042100
      6 OAC          4.6900     1.5500    -1.1180 oh         1 9OK      -0.560100
      7 CAI          4.7770    -0.1070     0.5300 ca         1 9OK       0.118100
      8 OAB          5.9680     0.3670     0.9590 oh         1 9OK      -0.536100
      9 CAD          4.2180    -1.2050     1.1630 ca         1 9OK      -0.122000
     10 CAE          2.9970    -1.7190     0.7440 ca         1 9OK      -0.101000
     11 CAK          2.3110    -1.1460    -0.3190 ca         1 9OK      -0.080300
     12 CAH          0.9660    -1.6620    -0.7500 c3         1 9OK      -0.032100
     13 CAG         -0.1450    -0.8930    -0.0500 c3         1 9OK       0.170600
     14 OAA         -1.3840    -1.4240    -0.4780 os         1 9OK      -0.434000
     15 C2          -2.5500    -0.7030    -0.2560 c5         1 9OK       0.415000
     16 C1          -3.6730    -1.5080    -0.8970 c3         1 9OK       0.181600
     17 O1          -3.3790    -1.7420    -2.2470 oh         1 9OK      -0.688000
     18 O5          -2.4610     0.5710    -0.8530 os         1 9OK      -0.445000
     19 O6          -2.1240     3.3410    -1.4560 oh         1 9OK      -0.699000
     20 O4          -3.0220     1.5850     2.5320 oh         1 9OK      -0.710000
     21 C3          -2.8730    -0.4310     1.2290 c5         1 9OK       0.109300
     22 O3          -2.3460    -1.4310     2.0470 oh         1 9OK      -0.688000
     23 H1          -1.2710     0.9530     1.6370 h1         1 9OK       0.055700
     24 H2          -3.6890     1.9540     0.0810 h1         1 9OK       0.073700
     25 H3          -1.8210     3.5040     0.5970 h1         1 9OK       0.019700
     26 H4          -0.6970     2.4310    -0.2410 h1         1 9OK       0.019700
     27 H6           4.1510     1.8990    -1.8360 ho         1 9OK       0.474000
     28 H7           6.2440     1.1210     0.4240 ho         1 9OK       0.480000
     29 H8           4.7510    -1.6620     1.9890 ha         1 9OK       0.131000
     30 H9           2.5810    -2.5790     1.2550 ha         1 9OK       0.120000
     31 H10          0.8490    -1.5610    -1.8320 hc         1 9OK       0.063700
     32 H11          0.8800    -2.7250    -0.5120 hc         1 9OK       0.063700
     33 H12         -0.0280    -0.9870     1.0350 h1         1 9OK       0.029700
     34 H13         -0.0490     0.1680    -0.3030 h1         1 9OK       0.029700
     35 H14         -3.7990    -2.4420    -0.3320 h1         1 9OK       0.031200
     36 H15         -4.6020    -0.9360    -0.7740 h1         1 9OK       0.031200
     37 H16         -4.1640    -2.1110    -2.6610 ho         1 9OK       0.500000
     38 H17         -1.5210     4.0620    -1.6570 ho         1 9OK       0.503000
     39 H18         -2.5130     2.3460     2.8260 ho         1 9OK       0.513000
     40 H19         -3.9700    -0.3820     1.3280 h1         1 9OK       0.054700
     41 H20         -2.6590    -1.2780     2.9450 ho         1 9OK       0.515000
     42 H5           2.3560     0.4250    -1.7850 ha         1 9OK       0.115000
@<TRIPOS>BOND
     1     1     2 1   
     2     1    20 1   
     3     1    21 1   
     4     1    23 1   
     5     2     3 1   
     6     2    18 1   
     7     2    24 1   
     8     3    19 1   
     9     3    25 1   
    10     3    26 1   
    11     4     5 ar  
    12     4    11 ar  
    13     4    42 1   
    14     5     6 1   
    15     5     7 ar  
    16     6    27 1   
    17     7     8 1   
    18     7     9 ar  
    19     8    28 1   
    20     9    10 ar  
    21     9    29 1   
    22    10    11 ar  
    23    10    30 1   
    24    11    12 1   
    25    12    13 1   
    26    12    31 1   
    27    12    32 1   
    28    13    14 1   
    29    13    33 1   
    30    13    34 1   
    31    14    15 1   
    32    15    16 1   
    33    15    18 1   
    34    15    21 1   
    35    16    17 1   
    36    16    35 1   
    37    16    36 1   
    38    17    37 1   
    39    19    38 1   
    40    20    39 1   
    41    21    22 1   
    42    21    40 1   
    43    22    41 1   
@<TRIPOS>SUBSTRUCTURE
     1 9OK         1 TEMP              0 ****  ****    0 ROOT
