@<TRIPOS>MOLECULE
9OL
   51    54     1     0     0
SMALL
abcg2


@<TRIPOS>ATOM
      1 C7         -15.2870    15.2390   -18.6470 ca         1 9OL      -0.056300
      2 C4         -10.8480    15.2260   -16.9960 ca         1 9OL       0.158900
      3 C5         -14.2440    15.9040   -17.9950 ca         1 9OL      -0.158500
      4 C6         -16.6400    17.2600   -18.5940 ca         1 9OL      -0.030800
      5 C3         -16.4620    15.9170   -18.9430 ca         1 9OL      -0.105000
      6 C2         -15.5840    17.9130   -17.9450 ca         1 9OL      -0.120000
      7 C1         -14.4050    17.2470   -17.6500 ca         1 9OL      -0.060000
      8 C8         -13.0290    13.7600   -17.6050 ca         1 9OL      -0.224300
      9 C9         -13.0200    15.1570   -17.6580 ca         1 9OL       0.204500
     10 C10        -11.8480    13.1760   -17.0770 ca         1 9OL       0.375900
     11 C12        -17.8950    18.0010   -18.8810 ce         1 9OL      -0.057400
     12 C13        -15.0700    13.8130   -19.0440 c6         1 9OL      -0.030100
     13 C14        -17.4220    18.1680   -21.3840 c6         1 9OL      -0.068900
     14 C15        -19.3820    16.7980   -20.5990 c6         1 9OL      -0.068900
     15 C16        -18.0810    18.2410   -22.7580 c6         1 9OL       0.157800
     16 C17        -19.9740    16.9350   -21.9990 c6         1 9OL       0.157800
     17 C18        -18.4800    18.0060   -20.2830 c6         1 9OL      -0.021500
     18 C19        -14.2930    12.9840   -18.0010 c6         1 9OL       0.020300
     19 C20        -15.1680    12.7670   -16.7520 c3         1 9OL      -0.084100
     20 C21        -14.0150    11.6290   -18.6830 c3         1 9OL      -0.084100
     21 N22        -11.9260    15.8970   -17.3630 nb         1 9OL      -0.220000
     22 N23        -10.7530    13.9170   -16.8190 nb         1 9OL      -0.270000
     23 N24        -18.9000    17.0480   -22.9870 n7         1 9OL      -0.866400
     24 N25        -11.7060    11.8530   -16.8070 nv         1 9OL      -1.067900
     25 H1          -9.9500    15.8060   -16.8040 h5         1 9OL       0.046100
     26 H2         -17.2560    15.3760   -19.4360 ha         1 9OL       0.118000
     27 H3         -15.6920    18.9560   -17.6790 ha         1 9OL       0.116000
     28 H4         -13.6000    17.7640   -17.1460 ha         1 9OL       0.136000
     29 H5         -18.1030    18.7060   -16.8960 ha         1 9OL       0.167000
     30 H6         -19.3800    19.2820   -18.1020 ha         1 9OL       0.167000
     31 H7         -16.0260    13.3260   -19.2410 hc         1 9OL       0.056200
     32 H8         -14.5050    13.7920   -19.9840 hc         1 9OL       0.056200
     33 H10        -16.8360    19.0730   -21.2080 hc         1 9OL       0.050700
     34 H11        -20.1840    16.7340   -19.8610 hc         1 9OL       0.050700
     35 H12        -18.8140    15.8680   -20.5530 hc         1 9OL       0.050700
     36 H13        -17.3210    18.2970   -23.5390 h1         1 9OL       0.028950
     37 H14        -18.6830    19.1640   -22.8160 h1         1 9OL       0.028950
     38 H15        -20.6410    17.8140   -22.0180 h1         1 9OL       0.028950
     39 H16        -20.5800    16.0590   -22.2400 h1         1 9OL       0.028950
     40 H17        -19.1300    18.8860   -20.3290 hc         1 9OL       0.042700
     41 H18        -14.6320    12.1990   -15.9910 hc         1 9OL       0.037367
     42 H19        -15.4680    13.7200   -16.3130 hc         1 9OL       0.037367
     43 H20        -16.0710    12.2130   -17.0190 hc         1 9OL       0.037367
     44 H21        -13.7860    10.8270   -17.9840 hc         1 9OL       0.037367
     45 H22        -14.9130    11.3210   -19.2210 hc         1 9OL       0.037367
     46 H23        -13.1990    11.7050   -19.4040 hc         1 9OL       0.037367
     47 H24        -19.2990    17.0860   -23.9180 hn         1 9OL       0.409000
     48 H26        -10.8860    11.5990   -16.2790 hn         1 9OL       0.486500
     49 H27        -12.5100    11.2650   -16.6810 hn         1 9OL       0.486500
     50 H9         -16.7300    17.3220   -21.3640 hc         1 9OL       0.050700
     51 C11        -18.4860    18.7010   -17.9090 c2         1 9OL      -0.310000
@<TRIPOS>BOND
     1     1     3 ar  
     2     1     5 ar  
     3     1    12 1   
     4     2    21 ar  
     5     2    22 ar  
     6     2    25 1   
     7     3     7 ar  
     8     3     9 1   
     9     4     5 ar  
    10     4     6 ar  
    11     4    11 1   
    12     5    26 1   
    13     6     7 ar  
    14     6    27 1   
    15     7    28 1   
    16     8     9 ar  
    17     8    10 ar  
    18     8    18 1   
    19     9    21 ar  
    20    10    22 ar  
    21    10    24 1   
    22    11    17 1   
    23    11    51 2   
    24    12    18 1   
    25    12    31 1   
    26    12    32 1   
    27    13    15 1   
    28    13    17 1   
    29    13    33 1   
    30    13    50 1   
    31    14    16 1   
    32    14    17 1   
    33    14    34 1   
    34    14    35 1   
    35    15    23 1   
    36    15    36 1   
    37    15    37 1   
    38    16    23 1   
    39    16    38 1   
    40    16    39 1   
    41    17    40 1   
    42    18    19 1   
    43    18    20 1   
    44    19    41 1   
    45    19    42 1   
    46    19    43 1   
    47    20    44 1   
    48    20    45 1   
    49    20    46 1   
    50    23    47 1   
    51    24    48 1   
    52    24    49 1   
    53    29    51 1   
    54    30    51 1   
@<TRIPOS>SUBSTRUCTURE
     1 9OL         1 TEMP              0 ****  ****    0 ROOT
