@<TRIPOS>MOLECULE
9OL
   51    54     1     0     0
SMALL
No Charge or Current Charge


@<TRIPOS>ATOM
      1 C7         -15.3880    15.1880   -18.4830 ca         1 9OL      -0.056300
      2 C4         -10.8470    15.3130   -17.0020 ca         1 9OL       0.158900
      3 C5         -14.2860    15.8930   -17.9560 ca         1 9OL      -0.158500
      4 C6         -16.7240    17.2340   -18.5500 ca         1 9OL      -0.030800
      5 C3         -16.5940    15.8540   -18.7740 ca         1 9OL      -0.105000
      6 C2         -15.6310    17.9460   -18.0350 ca         1 9OL      -0.120000
      7 C1         -14.4220    17.2900   -17.7490 ca         1 9OL      -0.060000
      8 C8         -12.9940    13.7910   -17.6470 ca         1 9OL      -0.224300
      9 C9         -13.0690    15.2210   -17.6480 ca         1 9OL       0.204500
     10 C10        -11.7430    13.2390   -17.2510 ca         1 9OL       0.375900
     11 C12        -17.9970    17.9480   -18.8530 ce         1 9OL      -0.057400
     12 C13        -15.2450    13.7240   -18.8520 c6         1 9OL      -0.030100
     13 C14        -17.3070    18.0180   -21.3520 c6         1 9OL      -0.068900
     14 C15        -19.5480    17.0270   -20.6770 c6         1 9OL      -0.068900
     15 C16        -17.8480    18.1700   -22.7950 c6         1 9OL       0.157800
     16 C17        -20.0240    17.1990   -22.1420 c6         1 9OL       0.157800
     17 C18        -18.4660    18.0800   -20.3160 c6         1 9OL      -0.021500
     18 C19        -14.2780    12.9430   -17.9270 c6         1 9OL       0.020300
     19 C20        -14.9800    12.6580   -16.5650 c3         1 9OL      -0.084100
     20 C21        -14.0230    11.5640   -18.6260 c3         1 9OL      -0.084100
     21 N22        -11.9800    15.9550   -17.3180 nb         1 9OL      -0.220000
     22 N23        -10.6790    13.9870   -16.9450 nb         1 9OL      -0.270000
     23 N24        -18.8870    17.1540   -23.0930 n7         1 9OL      -0.866400
     24 N25        -11.4930    11.9170   -17.0720 nv         1 9OL      -1.067900
     25 H1          -9.9860    15.9300   -16.7490 h5         1 9OL       0.046100
     26 H2         -17.4300    15.2970   -19.1880 ha         1 9OL       0.118000
     27 H3         -15.7170    19.0160   -17.8600 ha         1 9OL       0.116000
     28 H4         -13.6040    17.8840   -17.3480 ha         1 9OL       0.136000
     29 H5         -18.4330    18.3870   -16.8130 ha         1 9OL       0.167000
     30 H6         -19.6770    18.9950   -18.0480 ha         1 9OL       0.167000
     31 H7         -16.2310    13.2370   -18.8670 hc         1 9OL       0.056200
     32 H8         -14.8750    13.6790   -19.8860 hc         1 9OL       0.056200
     33 H10        -16.5740    18.8090   -21.1470 hc         1 9OL       0.050700
     34 H11        -20.4070    17.1200   -19.9990 hc         1 9OL       0.050700
     35 H12        -19.1520    16.0120   -20.5430 hc         1 9OL       0.050700
     36 H13        -17.0200    18.0690   -23.5120 h1         1 9OL       0.028950
     37 H14        -18.2750    19.1770   -22.9220 h1         1 9OL       0.028950
     38 H15        -20.5460    18.1630   -22.2440 h1         1 9OL       0.028950
     39 H16        -20.7430    16.4050   -22.3910 h1         1 9OL       0.028950
     40 H17        -18.9280    19.0720   -20.4180 hc         1 9OL       0.042700
     41 H18        -14.3270    12.0940   -15.8880 hc         1 9OL       0.037367
     42 H19        -15.2510    13.5900   -16.0540 hc         1 9OL       0.037367
     43 H20        -15.9000    12.0760   -16.6980 hc         1 9OL       0.037367
     44 H21        -13.6550    10.7950   -17.9400 hc         1 9OL       0.037367
     45 H22        -14.9490    11.1560   -19.0490 hc         1 9OL       0.037367
     46 H23        -13.3080    11.6620   -19.4520 hc         1 9OL       0.037367
     47 H24        -19.2430    17.3120   -24.0440 hn         1 9OL       0.409000
     48 H26        -10.6390    11.6540   -16.5860 hn         1 9OL       0.486500
     49 H27        -12.2770    11.2790   -16.9960 hn         1 9OL       0.486500
     50 H9         -16.7710    17.0620   -21.2760 hc         1 9OL       0.050700
     51 C11        -18.7400    18.4710   -17.8550 c2         1 9OL      -0.310000
@<TRIPOS>BOND
     1     1     3 ar  
     2     1     5 ar  
     3     1    12 1   
     4     2    21 ar  
     5     2    22 ar  
     6     2    25 1   
     7     3     7 ar  
     8     3     9 1   
     9     4     5 ar  
    10     4     6 ar  
    11     4    11 1   
    12     5    26 1   
    13     6     7 ar  
    14     6    27 1   
    15     7    28 1   
    16     8     9 ar  
    17     8    10 ar  
    18     8    18 1   
    19     9    21 ar  
    20    10    22 ar  
    21    10    24 1   
    22    11    17 1   
    23    11    51 2   
    24    12    18 1   
    25    12    31 1   
    26    12    32 1   
    27    13    15 1   
    28    13    17 1   
    29    13    33 1   
    30    13    50 1   
    31    14    16 1   
    32    14    17 1   
    33    14    34 1   
    34    14    35 1   
    35    15    23 1   
    36    15    36 1   
    37    15    37 1   
    38    16    23 1   
    39    16    38 1   
    40    16    39 1   
    41    17    40 1   
    42    18    19 1   
    43    18    20 1   
    44    19    41 1   
    45    19    42 1   
    46    19    43 1   
    47    20    44 1   
    48    20    45 1   
    49    20    46 1   
    50    23    47 1   
    51    24    48 1   
    52    24    49 1   
    53    29    51 1   
    54    30    51 1   
@<TRIPOS>SUBSTRUCTURE
     1 9OL         1 TEMP              0 ****  ****    0 ROOT
