@<TRIPOS>MOLECULE
9OM
   45    47     1     0     0
SMALL
bcc


@<TRIPOS>ATOM
      1 N02          7.5840     1.6180    -0.7660 nv         1 9OM      -0.960500
      2 C02          6.5560     0.9390    -0.1980 ca         1 9OM       0.681200
      3 N01          5.4250     0.8540    -0.8600 nb         1 9OM      -0.761000
      4 C10          4.4090     0.1350    -0.3280 ca         1 9OM       0.455600
      5 C03          6.7570     0.3110     1.0710 ca         1 9OM      -0.294300
      6 C04          5.7410    -0.4070     1.6120 ca         1 9OM      -0.047000
      7 C05          4.5100    -0.5260     0.9180 ca         1 9OM      -0.192300
      8 C06          3.4100    -1.2570     1.4100 ca         1 9OM      -0.098000
      9 C07          2.2460    -1.3350     0.6930 ca         1 9OM      -0.125000
     10 C08          2.1300    -0.6800    -0.5540 ca         1 9OM      -0.067300
     11 C09          3.1930     0.0420    -1.0400 ca         1 9OM      -0.187300
     12 C11          0.8560    -0.7970    -1.3460 c3         1 9OM       0.203100
     13 N12         -0.3130    -0.5580    -0.5220 n7         1 9OM      -0.805200
     14 C13         -1.5520    -0.6860    -1.2650 c3         1 9OM       0.158800
     15 C14         -2.7570    -0.4390    -0.3730 c3         1 9OM      -0.078400
     16 C15         -4.0760    -0.5730    -1.1370 c3         1 9OM      -0.026100
     17 C23         -5.2660    -0.2820    -0.2690 ca         1 9OM      -0.195600
     18 C22         -5.9190    -1.3210     0.3840 ca         1 9OM       0.403200
     19 C24         -5.7370     1.0190    -0.0540 ca         1 9OM      -0.033300
     20 C27         -5.1160     2.2050    -0.7280 c3         1 9OM      -0.052800
     21 C25         -6.8220     1.1750     0.8010 ca         1 9OM      -0.248300
     22 C26         -7.3910     0.0650     1.4040 ca         1 9OM       0.399200
     23 N21         -6.9530    -1.1720     1.2040 nb         1 9OM      -0.664000
     24 H1           8.3440     1.9280    -0.1850 hn         1 9OM       0.422300
     25 H2           7.3720     2.2110    -1.5520 hn         1 9OM       0.422300
     26 H3           7.7080     0.4100     1.5790 ha         1 9OM       0.138000
     27 H4           5.8640    -0.8920     2.5730 ha         1 9OM       0.134000
     28 H5           3.5000    -1.7620     2.3650 ha         1 9OM       0.130000
     29 H6           1.4040    -1.8950     1.0780 ha         1 9OM       0.148000
     30 H7           3.1140     0.5590    -1.9900 ha         1 9OM       0.143000
     31 H8           0.9110    -0.1310    -2.2210 h1         1 9OM       0.038700
     32 H9           0.7810    -1.8140    -1.7460 h1         1 9OM       0.038700
     33 H10         -0.2560     0.3780    -0.1380 hn         1 9OM       0.355800
     34 H12         -1.5950    -0.0050    -2.1310 h1         1 9OM       0.028200
     35 H13         -1.6040    -1.7010    -1.6720 h1         1 9OM       0.028200
     36 H14         -2.7450    -1.1460     0.4610 hc         1 9OM       0.051200
     37 H15         -2.6870     0.5620     0.0670 hc         1 9OM       0.051200
     38 H16         -4.0690     0.0970    -2.0010 hc         1 9OM       0.047700
     39 H17         -4.1560    -1.5870    -1.5360 hc         1 9OM       0.047700
     40 H18         -5.5780    -2.3410     0.2260 h4         1 9OM       0.017100
     41 H19         -5.2240     2.1410    -1.8120 hc         1 9OM       0.046700
     42 H20         -5.5820     3.1320    -0.4000 hc         1 9OM       0.046700
     43 H21         -4.0480     2.2760    -0.5190 hc         1 9OM       0.046700
     44 H22         -7.2290     2.1590     0.9990 ha         1 9OM       0.138000
     45 H23         -8.2360     0.1810     2.0730 h4         1 9OM       0.018100
@<TRIPOS>BOND
     1     1     2 1   
     2     1    24 1   
     3     1    25 1   
     4     2     3 ar  
     5     2     5 ar  
     6     3     4 ar  
     7     4     7 ar  
     8     4    11 ar  
     9     5     6 ar  
    10     5    26 1   
    11     6     7 ar  
    12     6    27 1   
    13     7     8 ar  
    14     8     9 ar  
    15     8    28 1   
    16     9    10 ar  
    17     9    29 1   
    18    10    11 ar  
    19    10    12 1   
    20    11    30 1   
    21    12    13 1   
    22    12    31 1   
    23    12    32 1   
    24    13    14 1   
    25    13    33 1   
    26    14    15 1   
    27    14    34 1   
    28    14    35 1   
    29    15    16 1   
    30    15    36 1   
    31    15    37 1   
    32    16    17 1   
    33    16    38 1   
    34    16    39 1   
    35    17    18 ar  
    36    17    19 ar  
    37    18    23 ar  
    38    18    40 1   
    39    19    20 1   
    40    19    21 ar  
    41    20    41 1   
    42    20    42 1   
    43    20    43 1   
    44    21    22 ar  
    45    21    44 1   
    46    22    23 ar  
    47    22    45 1   
@<TRIPOS>SUBSTRUCTURE
     1 9OM         1 TEMP              0 ****  ****    0 ROOT
