@<TRIPOS>MOLECULE
9OM
   45    47     1     0     0
SMALL
No Charge or Current Charge


@<TRIPOS>ATOM
      1 N02          6.7200     2.5380    -0.1550 nv         1 9OM      -1.070900
      2 C02          6.0940     1.4120     0.1900 ca         1 9OM       0.615900
      3 N01          4.9660     1.2690    -0.4910 nb         1 9OM      -0.761000
      4 C10          4.2170     0.1680    -0.2390 ca         1 9OM       0.325000
      5 C03          6.5720     0.5220     1.1540 ca         1 9OM      -0.211000
      6 C04          5.8120    -0.6230     1.4300 ca         1 9OM      -0.029000
      7 C05          4.6120    -0.8040     0.7190 ca         1 9OM      -0.127000
      8 C06          3.8120    -1.9360     0.9600 ca         1 9OM      -0.080000
      9 C07          2.6140    -2.1140     0.2490 ca         1 9OM      -0.107000
     10 C08          2.2070    -1.1630    -0.7040 ca         1 9OM      -0.067300
     11 C09          3.0120    -0.0300    -0.9390 ca         1 9OM      -0.104000
     12 C11          0.9090    -1.3590    -1.4760 c3         1 9OM       0.203100
     13 N12         -0.2400    -0.8860    -0.6830 n7         1 9OM      -0.860400
     14 C13         -1.5490    -1.0030    -1.3470 c3         1 9OM       0.158800
     15 C14         -2.6660    -0.4940    -0.4160 c3         1 9OM      -0.078400
     16 C15         -4.0710    -0.6020    -1.0470 c3         1 9OM      -0.026100
     17 C23         -5.1660    -0.0830    -0.1140 ca         1 9OM      -0.130300
     18 C22         -5.7670    -0.9760     0.8000 ca         1 9OM       0.337900
     19 C24         -5.5990     1.2640    -0.1240 ca         1 9OM      -0.033300
     20 C27         -5.0140     2.3070    -1.0700 c3         1 9OM      -0.052800
     21 C25         -6.6120     1.6300     0.7810 ca         1 9OM      -0.165000
     22 C26         -7.1510     0.6690     1.6510 ca         1 9OM       0.333900
     23 N21         -6.7400    -0.6170     1.6680 nb         1 9OM      -0.664000
     24 H1           7.3650     2.9340     0.5190 hn         1 9OM       0.477500
     25 H2           6.1540     3.1950    -0.6780 hn         1 9OM       0.477500
     26 H3           7.5070     0.7110     1.6720 ha         1 9OM       0.120000
     27 H4           6.1460    -1.3460     2.1720 ha         1 9OM       0.116000
     28 H5           4.1160    -2.6790     1.6950 ha         1 9OM       0.112000
     29 H6           1.9980    -2.9900     0.4420 ha         1 9OM       0.130000
     30 H7           2.7020     0.7080    -1.6730 ha         1 9OM       0.125000
     31 H8           0.9690    -0.8130    -2.4270 h1         1 9OM       0.038700
     32 H9           0.7940    -2.4240    -1.7190 h1         1 9OM       0.038700
     33 H10         -0.0800     0.1030    -0.4600 hn         1 9OM       0.411000
     34 H12         -1.5610    -0.4160    -2.2760 h1         1 9OM       0.028200
     35 H13         -1.7510    -2.0510    -1.6090 h1         1 9OM       0.028200
     36 H14         -2.6490    -1.0710     0.5170 hc         1 9OM       0.051200
     37 H15         -2.4680     0.5510    -0.1500 hc         1 9OM       0.051200
     38 H16         -4.0830    -0.0660    -2.0040 hc         1 9OM       0.047700
     39 H17         -4.2650    -1.6520    -1.2980 hc         1 9OM       0.047700
     40 H18         -5.4550    -2.0190     0.8390 h4         1 9OM       0.017100
     41 H19         -5.2650     2.0770    -2.1130 hc         1 9OM       0.046700
     42 H20         -5.3980     3.3110    -0.8550 hc         1 9OM       0.046700
     43 H21         -3.9220     2.3530    -0.9870 hc         1 9OM       0.046700
     44 H22         -6.9860     2.6500     0.8160 ha         1 9OM       0.120000
     45 H23         -7.9350     0.9380     2.3570 h4         1 9OM       0.018100
@<TRIPOS>BOND
     1     1     2 1   
     2     1    24 1   
     3     1    25 1   
     4     2     3 ar  
     5     2     5 ar  
     6     3     4 ar  
     7     4     7 ar  
     8     4    11 ar  
     9     5     6 ar  
    10     5    26 1   
    11     6     7 ar  
    12     6    27 1   
    13     7     8 ar  
    14     8     9 ar  
    15     8    28 1   
    16     9    10 ar  
    17     9    29 1   
    18    10    11 ar  
    19    10    12 1   
    20    11    30 1   
    21    12    13 1   
    22    12    31 1   
    23    12    32 1   
    24    13    14 1   
    25    13    33 1   
    26    14    15 1   
    27    14    34 1   
    28    14    35 1   
    29    15    16 1   
    30    15    36 1   
    31    15    37 1   
    32    16    17 1   
    33    16    38 1   
    34    16    39 1   
    35    17    18 ar  
    36    17    19 ar  
    37    18    23 ar  
    38    18    40 1   
    39    19    20 1   
    40    19    21 ar  
    41    20    41 1   
    42    20    42 1   
    43    20    43 1   
    44    21    22 ar  
    45    21    44 1   
    46    22    23 ar  
    47    22    45 1   
@<TRIPOS>SUBSTRUCTURE
     1 9OM         1 TEMP              0 ****  ****    0 ROOT
