@<TRIPOS>MOLECULE
9ON
   18    17     1     0     0
SMALL
abcg2


@<TRIPOS>ATOM
      1 O12          2.2620    -1.5560    -0.0700 o          1 9ON      -0.760500
      2 C7           2.4170    -0.3370     0.1500 c          1 9ON       0.714000
      3 O10          3.5140     0.2370     0.3230 o          1 9ON      -0.760500
      4 C4           1.1570     0.5590     0.2340 c3         1 9ON      -0.188700
      5 C5           1.3230     1.7760    -0.6760 c3         1 9ON      -0.054100
      6 C3          -0.1440    -0.1940    -0.0340 c3         1 9ON      -0.039400
      7 C2          -1.4000     0.6260     0.2200 c3         1 9ON      -0.198400
      8 C1          -2.7370    -0.1260     0.0880 c          1 9ON       0.710000
      9 O8          -3.7660     0.5470     0.3170 o          1 9ON      -0.766000
     10 O9          -2.7070    -1.3300    -0.2370 o          1 9ON      -0.766000
     11 H2           1.1200     0.9350     1.2670 hc         1 9ON       0.012700
     12 H3           0.5030     2.4860    -0.5620 hc         1 9ON       0.002033
     13 H4           2.2490     2.3040    -0.4570 hc         1 9ON       0.002033
     14 H5           1.3500     1.4770    -1.7280 hc         1 9ON       0.002033
     15 H6          -0.1450    -0.5600    -1.0660 hc         1 9ON       0.043200
     16 H7          -0.1700    -1.0850     0.5950 hc         1 9ON       0.043200
     17 H8          -1.3570     1.0670     1.2240 hc         1 9ON       0.002200
     18 H9          -1.4440     1.4860    -0.4570 hc         1 9ON       0.002200
@<TRIPOS>BOND
     1     1     2 1   
     2     2     3 1   
     3     2     4 1   
     4     4     5 1   
     5     4     6 1   
     6     4    11 1   
     7     5    12 1   
     8     5    13 1   
     9     5    14 1   
    10     6     7 1   
    11     6    15 1   
    12     6    16 1   
    13     7     8 1   
    14     7    17 1   
    15     7    18 1   
    16     8     9 1   
    17     8    10 1   
@<TRIPOS>SUBSTRUCTURE
     1 9ON         1 TEMP              0 ****  ****    0 ROOT
