@<TRIPOS>MOLECULE
9ON
   18    17     1     0     0
SMALL
No Charge or Current Charge


@<TRIPOS>ATOM
      1 O12          2.6210    -1.0750    -0.4750 o          1 9ON      -0.760500
      2 C7           2.3680    -0.2460     0.3870 c          1 9ON       0.714000
      3 O10          3.0270    -0.1280     1.4100 o          1 9ON      -0.760500
      4 C4           1.1550     0.6970     0.1850 c3         1 9ON      -0.188700
      5 C5           1.3680     1.6150    -1.0450 c3         1 9ON      -0.054100
      6 C3          -0.1730    -0.1130     0.1260 c3         1 9ON      -0.039400
      7 C2          -1.4640     0.7460     0.1810 c3         1 9ON      -0.198400
      8 C1          -2.7040    -0.1680     0.2530 c          1 9ON       0.710000
      9 O8          -3.1020    -0.5180     1.3540 o          1 9ON      -0.766000
     10 O9          -3.2090    -0.5420    -0.7940 o          1 9ON      -0.766000
     11 H2           1.0990     1.3510     1.0650 hc         1 9ON       0.012700
     12 H3           0.5920     2.3870    -1.1010 hc         1 9ON       0.002033
     13 H4           2.3370     2.1220    -0.9780 hc         1 9ON       0.002033
     14 H5           1.3470     1.0360    -1.9760 hc         1 9ON       0.002033
     15 H6          -0.1860    -0.7290    -0.7820 hc         1 9ON       0.043200
     16 H7          -0.1870    -0.8110     0.9730 hc         1 9ON       0.043200
     17 H8          -1.3830     1.3540     1.0910 hc         1 9ON       0.002200
     18 H9          -1.4810     1.3350    -0.7440 hc         1 9ON       0.002200
@<TRIPOS>BOND
     1     1     2 1   
     2     2     3 1   
     3     2     4 1   
     4     4     5 1   
     5     4     6 1   
     6     4    11 1   
     7     5    12 1   
     8     5    13 1   
     9     5    14 1   
    10     6     7 1   
    11     6    15 1   
    12     6    16 1   
    13     7     8 1   
    14     7    17 1   
    15     7    18 1   
    16     8     9 1   
    17     8    10 1   
@<TRIPOS>SUBSTRUCTURE
     1 9ON         1 TEMP              0 ****  ****    0 ROOT
