@<TRIPOS>MOLECULE
9OO
   70    75     1     0     0
SMALL
No Charge or Current Charge


@<TRIPOS>ATOM
      1 C15         10.9330    -1.4490     8.5480 c6         1 9OO       0.215800
      2 C17         11.6890     0.9580     9.0400 ca         1 9OO       0.388900
      3 C20         13.6380     2.7500     9.6250 ca         1 9OO      -0.287300
      4 C21         13.9260     1.3970     9.3450 ca         1 9OO       0.160400
      5 C23         14.7250     3.7890     9.9530 c3         1 9OO       0.313800
      6 C24         16.0140     3.1330    10.5070 c3         1 9OO      -0.086100
      7 C25         14.2500     4.8040    11.0240 ca         1 9OO      -0.095300
      8 C26         13.5170     4.3490    12.1470 ca         1 9OO      -0.075000
      9 C27         13.1010     5.2450    13.1470 ca         1 9OO      -0.152000
     10 C01          6.6350   -10.8920     9.9670 c3         1 9OO       0.077900
     11 C04          8.1590    -7.9280     8.8290 cc         1 9OO       0.251900
     12 C05          7.0890    -7.3370     9.5180 cc         1 9OO      -0.133800
     13 C06          6.8080    -5.9370     9.6480 cc         1 9OO      -0.045200
     14 C07          5.7280    -5.4260    10.3400 cd         1 9OO      -0.167100
     15 C09          6.9630    -3.7080     9.4440 cd         1 9OO      -0.249000
     16 C10          7.2500    -2.3500     9.1630 cd         1 9OO       0.454900
     17 C12          8.4070    -0.6360     7.7180 c6         1 9OO       0.207800
     18 C13          9.2470     0.4500     8.4650 c6         1 9OO       0.215800
     19 C16          9.7350    -2.3640     8.9790 c6         1 9OO       0.207800
     20 C19         12.2750     3.1140     9.5720 ca         1 9OO       0.160400
     21 C28         13.4280     6.6040    13.0490 ca         1 9OO       0.164000
     22 C29         14.1800     7.0710    11.9630 ca         1 9OO      -0.152000
     23 C30         14.5980     6.1760    10.9610 ca         1 9OO      -0.075000
     24 C34         14.7240     5.8920     6.7330 c3         1 9OO      -0.091100
     25 C36          5.3340    -1.8800    10.3490 cc         1 9OO       0.133900
     26 C38          7.5790    -4.8790     9.0840 cc         1 9OO      -0.193000
     27 C39          6.3510    -8.3480    10.0510 cd         1 9OO      -0.158000
     28 F31         13.0310     7.4640    14.0120 f          1 9OO      -0.186000
     29 N02          7.0230    -9.5100     9.6510 na         1 9OO       0.118800
     30 N03          8.1560    -9.2450     8.8860 nd         1 9OO      -0.525800
     31 N08          5.8690    -4.0560    10.1800 na         1 9OO       0.273900
     32 N11          8.3870    -1.9520     8.4470 nh         1 9OO      -0.771300
     33 N14         10.6650     0.0220     8.7400 nh         1 9OO      -0.783300
     34 N18         11.3060     2.2270     9.2850 nb         1 9OO      -0.245000
     35 N22         12.9590     0.5060     9.0570 nb         1 9OO      -0.245000
     36 N32         15.1170     4.4380     8.6850 n7         1 9OO      -0.878400
     37 N35          6.4270    -1.4170     9.6200 nc         1 9OO      -0.315000
     38 N37          4.9780    -3.1360    10.6720 nd         1 9OO      -0.303800
     39 H1          11.1620    -1.6460     7.4900 h1         1 9OO       0.069700
     40 H2          11.8110    -1.7710     9.1270 h1         1 9OO       0.069700
     41 H3          14.9400     1.0030     9.3420 h4         1 9OO       0.025600
     42 H4          15.7880     2.5130    11.3830 hc         1 9OO       0.045700
     43 H5          16.5100     2.5060     9.7570 hc         1 9OO       0.045700
     44 H6          16.7320     3.9020    10.8180 hc         1 9OO       0.045700
     45 H7          13.2690     3.2950    12.2490 ha         1 9OO       0.129000
     46 H8          12.5310     4.8860    14.0000 ha         1 9OO       0.132000
     47 H9           7.4440   -11.3830    10.5200 h1         1 9OO       0.055700
     48 H10          5.7260   -10.8910    10.5790 h1         1 9OO       0.055700
     49 H11          6.4440   -11.4400     9.0360 h1         1 9OO       0.055700
     50 H12          8.9490    -7.4300     8.2820 h4         1 9OO       0.034100
     51 H13          4.9190    -5.8890    10.8910 h4         1 9OO       0.232000
     52 H14          7.3900    -0.2500     7.5550 h1         1 9OO       0.069700
     53 H15          8.8380    -0.7790     6.7170 h1         1 9OO       0.069700
     54 H16          8.7410     0.6920     9.4110 h1         1 9OO       0.069700
     55 H17          9.2350     1.3610     7.8480 h1         1 9OO       0.069700
     56 H18          9.7010    -2.3730    10.0790 h1         1 9OO       0.069700
     57 H19          9.9710    -3.3900     8.6670 h1         1 9OO       0.069700
     58 H20         11.9480     4.1360     9.7600 h4         1 9OO       0.025600
     59 H21         14.4450     8.1230    11.9000 ha         1 9OO       0.132000
     60 H22         15.1990     6.5580    10.1390 ha         1 9OO       0.129000
     61 H23         13.4940     5.8160     8.5000 h1         1 9OO       0.033700
     62 H24         13.3700     4.3830     7.4610 h1         1 9OO       0.033700
     63 H25         13.9560     6.3970     6.1360 hc         1 9OO       0.038367
     64 H26         15.4140     6.6520     7.1190 hc         1 9OO       0.038367
     65 H27         15.2820     5.2170     6.0730 hc         1 9OO       0.038367
     66 H28          4.6960    -1.0760    10.6940 h5         1 9OO       0.053100
     67 H29          8.4670    -5.0020     8.4700 ha         1 9OO       0.200000
     68 H30          5.4490    -8.3510    10.6520 h4         1 9OO       0.152000
     69 H31         15.5410     3.7170     8.0940 hn         1 9OO       0.415000
     70 C33         14.0720     5.1140     7.8860 c3         1 9OO       0.159800
@<TRIPOS>BOND
     1     1    19 1   
     2     1    33 1   
     3     1    39 1   
     4     1    40 1   
     5     2    33 1   
     6     2    34 ar  
     7     2    35 ar  
     8     3     4 ar  
     9     3     5 1   
    10     3    20 ar  
    11     4    35 ar  
    12     4    41 1   
    13     5     6 1   
    14     5     7 1   
    15     5    36 1   
    16     6    42 1   
    17     6    43 1   
    18     6    44 1   
    19     7     8 ar  
    20     7    23 ar  
    21     8     9 ar  
    22     8    45 1   
    23     9    21 ar  
    24     9    46 1   
    25    10    29 1   
    26    10    47 1   
    27    10    48 1   
    28    10    49 1   
    29    11    12 1   
    30    11    30 2   
    31    11    50 1   
    32    12    13 1   
    33    12    27 2   
    34    13    14 2   
    35    13    26 1   
    36    14    31 1   
    37    14    51 1   
    38    15    16 1   
    39    15    26 2   
    40    15    31 1   
    41    16    32 1   
    42    16    37 2   
    43    17    18 1   
    44    17    32 1   
    45    17    52 1   
    46    17    53 1   
    47    18    33 1   
    48    18    54 1   
    49    18    55 1   
    50    19    32 1   
    51    19    56 1   
    52    19    57 1   
    53    20    34 ar  
    54    20    58 1   
    55    21    22 ar  
    56    21    28 1   
    57    22    23 ar  
    58    22    59 1   
    59    23    60 1   
    60    24    63 1   
    61    24    64 1   
    62    24    65 1   
    63    24    70 1   
    64    25    37 1   
    65    25    38 2   
    66    25    66 1   
    67    26    67 1   
    68    27    29 1   
    69    27    68 1   
    70    29    30 1   
    71    31    38 1   
    72    36    69 1   
    73    36    70 1   
    74    61    70 1   
    75    62    70 1   
@<TRIPOS>SUBSTRUCTURE
     1 9OO         1 TEMP              0 ****  ****    0 ROOT
