@<TRIPOS>MOLECULE
9OO
   70    75     1     0     0
SMALL
abcg2


@<TRIPOS>ATOM
      1 C15          9.7420    -1.1830    11.8200 c6         1 9OO       0.215800
      2 C17         10.8420     0.9010    11.1320 ca         1 9OO       0.388900
      3 C20         13.0320     2.1430    10.1080 ca         1 9OO      -0.287300
      4 C21         13.0070     0.7880    10.4180 ca         1 9OO       0.160400
      5 C23         14.2200     2.8290     9.4280 c3         1 9OO       0.313800
      6 C24         15.5410     2.1030     9.7420 c3         1 9OO      -0.086100
      7 C25         14.3810     4.2730     9.9220 ca         1 9OO      -0.095300
      8 C26         14.2600     4.5680    11.2820 ca         1 9OO      -0.075000
      9 C27         14.4680     5.8540    11.7670 ca         1 9OO      -0.152000
     10 C01          9.3090    -9.7590     7.8830 c3         1 9OO       0.077900
     11 C04          9.4310    -6.8580     9.8580 cc         1 9OO       0.251900
     12 C05          8.4670    -6.3940     8.9340 cc         1 9OO      -0.133800
     13 C06          7.8020    -5.1020     8.9090 cc         1 9OO      -0.045200
     14 C07          6.8060    -4.7020     8.0210 cd         1 9OO      -0.167100
     15 C09          7.2030    -2.9700     9.4220 cd         1 9OO      -0.249000
     16 C10          6.9290    -1.6160     9.8130 cd         1 9OO       0.454900
     17 C12          7.3790     0.4470    11.0300 c6         1 9OO       0.207800
     18 C13          8.5050     0.9550    11.9340 c6         1 9OO       0.215800
     19 C16          8.2930    -1.6540    11.9050 c6         1 9OO       0.207800
     20 C19         11.8340     2.8080    10.3740 ca         1 9OO       0.160400
     21 C28         14.8030     6.8480    10.8670 ca         1 9OO       0.164000
     22 C29         14.9500     6.5990     9.5160 ca         1 9OO      -0.152000
     23 C30         14.7400     5.3020     9.0540 ca         1 9OO      -0.075000
     24 C34         12.8960     3.2870     5.8700 c3         1 9OO      -0.091100
     25 C36          5.4510    -1.4680     8.0490 cc         1 9OO       0.133900
     26 C38          8.0530    -4.0180     9.7780 cc         1 9OO      -0.193000
     27 C39          8.3060    -7.4630     8.0610 cd         1 9OO      -0.158000
     28 F31         14.9960     8.1140    11.3280 f          1 9OO      -0.186000
     29 N02          9.1290    -8.4490     8.4770 na         1 9OO       0.118800
     30 N03          9.8260    -8.0980     9.5760 nd         1 9OO      -0.525800
     31 N08          6.4580    -3.4300     8.3270 na         1 9OO       0.273900
     32 N11          7.5020    -1.0080    10.8680 nh         1 9OO      -0.771300
     33 N14          9.7500     0.2670    11.6310 nh         1 9OO      -0.783300
     34 N18         10.7540     2.2220    10.8730 nb         1 9OO      -0.245000
     35 N22         11.9480     0.1610    10.9290 nb         1 9OO      -0.245000
     36 N32         14.0820     2.8050     7.9570 n7         1 9OO      -0.878400
     37 N35          6.0720    -0.8860     9.0900 nc         1 9OO      -0.315000
     38 N37          5.5600    -2.6950     7.6170 nd         1 9OO      -0.303800
     39 H1          10.2380    -1.6560    10.9730 h1         1 9OO       0.069700
     40 H2          10.2810    -1.4720    12.7290 h1         1 9OO       0.069700
     41 H3          13.8780     0.1640    10.2550 h4         1 9OO       0.025600
     42 H4          15.7000     2.0380    10.8180 hc         1 9OO       0.045700
     43 H5          15.5460     1.0940     9.3260 hc         1 9OO       0.045700
     44 H6          16.3660     2.6580     9.2980 hc         1 9OO       0.045700
     45 H7          13.9950     3.7860    11.9820 ha         1 9OO       0.129000
     46 H8          14.3710     6.0820    12.8200 ha         1 9OO       0.132000
     47 H9           9.0460   -10.5340     8.6040 h1         1 9OO       0.055700
     48 H10          8.6580    -9.8370     7.0150 h1         1 9OO       0.055700
     49 H11         10.3450    -9.8890     7.5740 h1         1 9OO       0.055700
     50 H12          9.8440    -6.3390    10.7090 h4         1 9OO       0.034100
     51 H13          6.3350    -5.2150     7.2010 h4         1 9OO       0.232000
     52 H14          6.4070     0.7130    11.4560 h1         1 9OO       0.069700
     53 H15          7.4490     0.9060    10.0460 h1         1 9OO       0.069700
     54 H16          8.2580     0.8040    12.9880 h1         1 9OO       0.069700
     55 H17          8.6390     2.0180    11.7750 h1         1 9OO       0.069700
     56 H18          7.8590    -1.3920    12.8720 h1         1 9OO       0.069700
     57 H19          8.2330    -2.7290    11.8240 h1         1 9OO       0.069700
     58 H20         11.7440     3.8710    10.1770 h4         1 9OO       0.025600
     59 H21         15.2200     7.4000     8.8410 ha         1 9OO       0.132000
     60 H22         14.8630     5.0870     8.0030 ha         1 9OO       0.129000
     61 H23         12.6200     4.2750     7.7610 h1         1 9OO       0.033700
     62 H24         11.9670     2.6480     7.7020 h1         1 9OO       0.033700
     63 H25         11.9460     3.6110     5.4410 hc         1 9OO       0.038367
     64 H26         13.6800     3.9650     5.5280 hc         1 9OO       0.038367
     65 H27         13.1170     2.2890     5.4810 hc         1 9OO       0.038367
     66 H28          4.7550    -0.8480     7.4930 h5         1 9OO       0.053100
     67 H29          8.7960    -4.0170    10.5540 ha         1 9OO       0.200000
     68 H30          7.6800    -7.5850     7.1930 h4         1 9OO       0.152000
     69 H31         14.2570     1.8570     7.6410 hn         1 9OO       0.415000
     70 C33         12.8170     3.2680     7.3890 c3         1 9OO       0.159800
@<TRIPOS>BOND
     1     1    19 1   
     2     1    33 1   
     3     1    39 1   
     4     1    40 1   
     5     2    33 1   
     6     2    34 ar  
     7     2    35 ar  
     8     3     4 ar  
     9     3     5 1   
    10     3    20 ar  
    11     4    35 ar  
    12     4    41 1   
    13     5     6 1   
    14     5     7 1   
    15     5    36 1   
    16     6    42 1   
    17     6    43 1   
    18     6    44 1   
    19     7     8 ar  
    20     7    23 ar  
    21     8     9 ar  
    22     8    45 1   
    23     9    21 ar  
    24     9    46 1   
    25    10    29 1   
    26    10    47 1   
    27    10    48 1   
    28    10    49 1   
    29    11    12 1   
    30    11    30 2   
    31    11    50 1   
    32    12    13 1   
    33    12    27 2   
    34    13    14 2   
    35    13    26 1   
    36    14    31 1   
    37    14    51 1   
    38    15    16 1   
    39    15    26 2   
    40    15    31 1   
    41    16    32 1   
    42    16    37 2   
    43    17    18 1   
    44    17    32 1   
    45    17    52 1   
    46    17    53 1   
    47    18    33 1   
    48    18    54 1   
    49    18    55 1   
    50    19    32 1   
    51    19    56 1   
    52    19    57 1   
    53    20    34 ar  
    54    20    58 1   
    55    21    22 ar  
    56    21    28 1   
    57    22    23 ar  
    58    22    59 1   
    59    23    60 1   
    60    24    63 1   
    61    24    64 1   
    62    24    65 1   
    63    24    70 1   
    64    25    37 1   
    65    25    38 2   
    66    25    66 1   
    67    26    67 1   
    68    27    29 1   
    69    27    68 1   
    70    29    30 1   
    71    31    38 1   
    72    36    69 1   
    73    36    70 1   
    74    61    70 1   
    75    62    70 1   
@<TRIPOS>SUBSTRUCTURE
     1 9OO         1 TEMP              0 ****  ****    0 ROOT
