@<TRIPOS>MOLECULE
9OS
   46    48     1     0     0
SMALL
abcg2


@<TRIPOS>ATOM
      1 C10          4.3960     0.1960     0.1230 ca         1 9OS       0.324000
      2 C11          1.1390    -0.8480     1.8010 c3         1 9OS       0.203100
      3 N02          6.9340     2.4620    -0.8270 nv         1 9OS      -1.069900
      4 C02          6.2310     1.3100    -0.6940 ca         1 9OS       0.616900
      5 N01          5.1300     1.3300     0.0200 nb         1 9OS      -0.758000
      6 C03          6.6950     0.1350    -1.3670 ca         1 9OS      -0.210000
      7 C04          5.9700    -1.0060    -1.2640 ca         1 9OS      -0.030000
      8 C05          4.7720    -1.0170    -0.5030 ca         1 9OS      -0.127000
      9 C06          3.9660    -2.1600    -0.3470 ca         1 9OS      -0.075000
     10 C07          2.8210    -2.1070     0.4060 ca         1 9OS      -0.128000
     11 C08          2.4300    -0.9040     1.0320 ca         1 9OS      -0.068300
     12 C09          3.2090     0.2200     0.8830 ca         1 9OS      -0.077000
     13 N12          0.0590    -0.3970     0.9380 n7         1 9OS      -0.854400
     14 C13         -1.2240    -0.3790     1.6150 c3         1 9OS       0.156800
     15 C14         -2.3310     0.0860     0.6810 c3         1 9OS      -0.076400
     16 C15         -3.6890     0.1260     1.3830 c3         1 9OS      -0.013100
     17 C23         -4.7950     0.6020     0.4880 ca         1 9OS      -0.163300
     18 C22         -5.2660     1.9020     0.5680 ca         1 9OS       0.362900
     19 C24         -5.3810    -0.2250    -0.4830 ca         1 9OS       0.177100
     20 O27         -4.9330    -1.4810    -0.5550 os         1 9OS      -0.335100
     21 C28         -5.4950    -2.3550    -1.5180 c3         1 9OS       0.146900
     22 C25         -6.3810     0.3020    -1.2960 ca         1 9OS      -0.258000
     23 C26         -6.7540     1.6250    -1.1110 ca         1 9OS       0.365900
     24 N21         -6.2190     2.4240    -0.2010 nb         1 9OS      -0.685000
     25 H1           0.9360    -1.8320     2.2520 h1         1 9OS       0.036700
     26 H2           1.2300    -0.1400     2.6290 h1         1 9OS       0.036700
     27 H3           7.8900     2.4150    -1.1340 hn         1 9OS       0.478000
     28 H4           6.7220     3.2130    -0.1910 hn         1 9OS       0.478000
     29 H5           7.6100     0.1700    -1.9460 ha         1 9OS       0.119000
     30 H6           6.2970    -1.9110    -1.7610 ha         1 9OS       0.115000
     31 H7           4.2630    -3.0850    -0.8270 ha         1 9OS       0.110000
     32 H8           2.2080    -2.9920     0.5240 ha         1 9OS       0.109000
     33 H9           2.9200     1.1520     1.3560 ha         1 9OS       0.133000
     34 H10         -0.0010    -1.0230     0.1420 hn         1 9OS       0.409000
     35 H12         -1.4930    -1.3590     2.0410 h1         1 9OS       0.026700
     36 H13         -1.1520     0.3120     2.4620 h1         1 9OS       0.026700
     37 H14         -2.0860     1.0800     0.2990 hc         1 9OS       0.052200
     38 H15         -2.3810    -0.5830    -0.1830 hc         1 9OS       0.052200
     39 H16         -3.9250    -0.8650     1.7830 hc         1 9OS       0.047700
     40 H17         -3.6270     0.7990     2.2430 hc         1 9OS       0.047700
     41 H18         -4.8330     2.5630     1.3130 h4         1 9OS       0.019100
     42 H19         -4.9920    -3.3100    -1.3970 h1         1 9OS       0.044367
     43 H20         -6.5670    -2.4970    -1.3600 h1         1 9OS       0.044367
     44 H21         -5.3300    -1.9940    -2.5370 h1         1 9OS       0.044367
     45 H22         -6.8740    -0.2840    -2.0590 ha         1 9OS       0.125000
     46 H23         -7.5320     2.0480    -1.7380 h4         1 9OS       0.016100
@<TRIPOS>BOND
     1     1     5 ar  
     2     1     8 ar  
     3     1    12 ar  
     4     2    11 1   
     5     2    13 1   
     6     2    25 1   
     7     2    26 1   
     8     3     4 1   
     9     3    27 1   
    10     3    28 1   
    11     4     5 ar  
    12     4     6 ar  
    13     6     7 ar  
    14     6    29 1   
    15     7     8 ar  
    16     7    30 1   
    17     8     9 ar  
    18     9    10 ar  
    19     9    31 1   
    20    10    11 ar  
    21    10    32 1   
    22    11    12 ar  
    23    12    33 1   
    24    13    14 1   
    25    13    34 1   
    26    14    15 1   
    27    14    35 1   
    28    14    36 1   
    29    15    16 1   
    30    15    37 1   
    31    15    38 1   
    32    16    17 1   
    33    16    39 1   
    34    16    40 1   
    35    17    18 ar  
    36    17    19 ar  
    37    18    24 ar  
    38    18    41 1   
    39    19    20 1   
    40    19    22 ar  
    41    20    21 1   
    42    21    42 1   
    43    21    43 1   
    44    21    44 1   
    45    22    23 ar  
    46    22    45 1   
    47    23    24 ar  
    48    23    46 1   
@<TRIPOS>SUBSTRUCTURE
     1 9OS         1 TEMP              0 ****  ****    0 ROOT
