@<TRIPOS>MOLECULE
9OS
   46    48     1     0     0
SMALL
No Charge or Current Charge


@<TRIPOS>ATOM
      1 C10          4.4050     0.2270     0.0750 ca         1 9OS       0.324000
      2 C11          1.1970    -0.9610     1.8310 c3         1 9OS       0.203100
      3 N02          6.7670     2.5580    -0.8640 nv         1 9OS      -1.069900
      4 C02          6.2020     1.3520    -0.8000 ca         1 9OS       0.616900
      5 N01          5.0870     1.3870    -0.0830 nb         1 9OS      -0.758000
      6 C03          6.7360     0.2110    -1.4020 ca         1 9OS      -0.210000
      7 C04          6.0470    -1.0000    -1.2500 ca         1 9OS      -0.030000
      8 C05          4.8590    -0.9920    -0.4970 ca         1 9OS      -0.127000
      9 C06          4.1300    -2.1820    -0.3160 ca         1 9OS      -0.075000
     10 C07          2.9450    -2.1730     0.4360 ca         1 9OS      -0.128000
     11 C08          2.4810    -0.9760     1.0130 ca         1 9OS      -0.068300
     12 C09          3.2150     0.2120     0.8260 ca         1 9OS      -0.077000
     13 N12          0.0690    -0.4840     1.0120 n7         1 9OS      -0.854400
     14 C13         -1.2330    -0.4560     1.6980 c3         1 9OS       0.156800
     15 C14         -2.3250     0.0710     0.7460 c3         1 9OS      -0.076400
     16 C15         -3.7180     0.1380     1.4080 c3         1 9OS      -0.013100
     17 C23         -4.7880     0.6620     0.4520 ca         1 9OS      -0.163300
     18 C22         -5.1610     2.0180     0.4890 ca         1 9OS       0.362900
     19 C24         -5.4210    -0.1770    -0.4840 ca         1 9OS       0.177100
     20 O27         -5.0690    -1.5120    -0.5420 os         1 9OS      -0.335100
     21 C28         -5.6680    -2.4240    -1.4790 c3         1 9OS       0.146900
     22 C25         -6.3940     0.3820    -1.3320 ca         1 9OS      -0.258000
     23 C26         -6.6980     1.7440    -1.2180 ca         1 9OS       0.365900
     24 N21         -6.0960     2.5580    -0.3240 nb         1 9OS      -0.685000
     25 H1           0.9970    -1.9740     2.2070 h1         1 9OS       0.036700
     26 H2           1.3380    -0.3110     2.7060 h1         1 9OS       0.036700
     27 H3           7.7620     2.5930    -1.0550 hn         1 9OS       0.478000
     28 H4           6.4110     3.2300    -0.1950 hn         1 9OS       0.478000
     29 H5           7.6580     0.2620    -1.9730 ha         1 9OS       0.119000
     30 H6           6.4250    -1.9150    -1.7030 ha         1 9OS       0.115000
     31 H7           4.4800    -3.1140    -0.7570 ha         1 9OS       0.110000
     32 H8           2.3880    -3.0970     0.5710 ha         1 9OS       0.109000
     33 H9           2.8560     1.1380     1.2660 ha         1 9OS       0.133000
     34 H10         -0.0090    -1.1050     0.1990 hn         1 9OS       0.409000
     35 H12         -1.5080    -1.4640     2.0370 h1         1 9OS       0.026700
     36 H13         -1.1840     0.1950     2.5820 h1         1 9OS       0.026700
     37 H14         -2.0460     1.0720     0.3950 hc         1 9OS       0.052200
     38 H15         -2.3780    -0.5770    -0.1380 hc         1 9OS       0.052200
     39 H16         -3.9920    -0.8580     1.7770 hc         1 9OS       0.047700
     40 H17         -3.6590     0.7810     2.2960 hc         1 9OS       0.047700
     41 H18         -4.6930     2.7020     1.1970 h4         1 9OS       0.019100
     42 H19         -5.2440    -3.4280    -1.3550 h1         1 9OS       0.044367
     43 H20         -6.7520    -2.4900    -1.3200 h1         1 9OS       0.044367
     44 H21         -5.4820    -2.1010    -2.5110 h1         1 9OS       0.044367
     45 H22         -6.9200    -0.2080    -2.0760 ha         1 9OS       0.125000
     46 H23         -7.4480     2.2020    -1.8620 h4         1 9OS       0.016100
@<TRIPOS>BOND
     1     1     5 ar  
     2     1     8 ar  
     3     1    12 ar  
     4     2    11 1   
     5     2    13 1   
     6     2    25 1   
     7     2    26 1   
     8     3     4 1   
     9     3    27 1   
    10     3    28 1   
    11     4     5 ar  
    12     4     6 ar  
    13     6     7 ar  
    14     6    29 1   
    15     7     8 ar  
    16     7    30 1   
    17     8     9 ar  
    18     9    10 ar  
    19     9    31 1   
    20    10    11 ar  
    21    10    32 1   
    22    11    12 ar  
    23    12    33 1   
    24    13    14 1   
    25    13    34 1   
    26    14    15 1   
    27    14    35 1   
    28    14    36 1   
    29    15    16 1   
    30    15    37 1   
    31    15    38 1   
    32    16    17 1   
    33    16    39 1   
    34    16    40 1   
    35    17    18 ar  
    36    17    19 ar  
    37    18    24 ar  
    38    18    41 1   
    39    19    20 1   
    40    19    22 ar  
    41    20    21 1   
    42    21    42 1   
    43    21    43 1   
    44    21    44 1   
    45    22    23 ar  
    46    22    45 1   
    47    23    24 ar  
    48    23    46 1   
@<TRIPOS>SUBSTRUCTURE
     1 9OS         1 TEMP              0 ****  ****    0 ROOT
