@<TRIPOS>MOLECULE
9OT
  124   127     1     0     0
SMALL
No Charge or Current Charge


@<TRIPOS>ATOM
      1 OAQ         17.3960    40.6800    46.2760 o          1 9OT      -0.781500
      2 CAP         17.4430    40.4590    45.0750 c          1 9OT       0.715000
      3 OAR         17.2330    39.3580    44.5890 o          1 9OT      -0.781500
      4 CAO         17.8330    41.6100    44.1330 c3         1 9OT      -0.199400
      5 CAI         19.3730    41.6500    43.9460 c3         1 9OT      -0.034400
      6 CAF         19.8930    42.7480    42.9750 c3         1 9OT      -0.046300
      7 CAG         19.4500    42.4830    41.4970 c          1 9OT       0.711000
      8 OAM         20.1010    41.6850    40.8370 o          1 9OT      -0.754500
      9 OAL         18.5380    43.1470    41.0180 o          1 9OT      -0.754500
     10 NAE         19.5260    44.1180    43.4130 ns         1 9OT      -0.460900
     11 CAD         20.0700    44.7890    44.4780 c          1 9OT       0.640100
     12 OAH         20.9580    44.3430    45.1870 o          1 9OT      -0.706100
     13 N           19.4920    46.0170    44.6640 ns         1 9OT      -0.510900
     14 CA          19.8660    46.9960    45.7150 c3         1 9OT      -0.005300
     15 C           18.6720    47.9540    46.0620 c          1 9OT       0.711000
     16 OXT         18.6620    48.4830    47.1650 o          1 9OT      -0.755000
     17 O           17.7420    48.0560    45.2700 o          1 9OT      -0.755000
     18 CB          21.1870    47.7450    45.3740 c3         1 9OT      -0.066400
     19 CAS         21.1970    48.5790    44.0640 c3         1 9OT      -0.068400
     20 CAT         20.6160    50.0090    44.1900 c3         1 9OT      -0.094400
     21 CAU         20.5300    50.7690    42.8480 c3         1 9OT       0.108000
     22 NAV         21.8240    50.9760    42.1920 ns         1 9OT      -0.480900
     23 CBI         22.7400    51.9490    42.5320 c          1 9OT       0.594100
     24 OBK         22.5710    52.6860    43.4960 o          1 9OT      -0.658100
     25 CBH         23.9610    52.0840    41.5710 c3         1 9OT       0.033700
     26 CBG         24.9590    50.8990    41.6790 c3         1 9OT      -0.056100
     27 CAW         24.3680    49.5560    41.2620 ca         1 9OT      -0.072300
     28 CBB         24.3800    48.4710    42.1580 ca         1 9OT      -0.101000
     29 CBA         23.7880    47.2450    41.8030 ca         1 9OT      -0.030000
     30 CBF         23.7740    46.1750    42.7170 ca         1 9OT      -0.115000
     31 CBE         23.1720    44.9550    42.3650 ca         1 9OT      -0.111000
     32 CBD         22.5840    44.8010    41.0990 ca         1 9OT      -0.118000
     33 CBC         22.5940    45.8670    40.1820 ca         1 9OT      -0.050000
     34 CAZ         23.1940    47.0920    40.5320 ca         1 9OT      -0.032000
     35 CAY         23.2060    48.1660    39.6230 ca         1 9OT      -0.062000
     36 CAX         23.7920    49.3910    39.9870 ca         1 9OT      -0.138000
     37 NBJ         24.6560    53.3660    41.8250 ns         1 9OT      -0.481900
     38 CBL         25.4450    54.0370    40.9150 c          1 9OT       0.636700
     39 OBN         25.6120    53.6030    39.7830 o          1 9OT      -0.620100
     40 CBM         26.0860    55.3280    41.3870 ca         1 9OT      -0.126600
     41 CBS         25.9190    55.8140    42.7070 ca         1 9OT      -0.067000
     42 CBR         26.5560    56.9980    43.1170 ca         1 9OT      -0.101500
     43 CBO         26.8930    56.0700    40.4950 ca         1 9OT      -0.067000
     44 CBP         27.5270    57.2540    40.9100 ca         1 9OT      -0.101500
     45 CBQ         27.3670    57.7220    42.2260 ca         1 9OT      -0.124300
     46 CBT         28.1190    58.9500    42.7120 c3         1 9OT       0.152300
     47 NBU         29.2300    58.5250    43.5540 ns         1 9OT      -0.485900
     48 CCG         29.6780    59.1690    44.6840 c          1 9OT       0.603100
     49 OCH         29.2620    60.2790    44.9970 o          1 9OT      -0.667100
     50 CCA         30.7140    58.3780    45.5510 c3         1 9OT       0.036700
     51 CCB         32.1070    59.0680    45.5110 c3         1 9OT      -0.061400
     52 CCC         33.2630    58.3060    46.2230 c3         1 9OT      -0.210400
     53 CCD         33.9580    57.3250    45.2600 c          1 9OT       0.717000
     54 OCF         34.8980    57.7370    44.5990 o          1 9OT      -0.719500
     55 OCE         33.4760    56.2100    45.1370 o          1 9OT      -0.719500
     56 NBZ         30.7950    56.9400    45.1820 ns         1 9OT      -0.518900
     57 CBY         29.7900    56.0210    45.3950 c          1 9OT       0.587100
     58 OCI         28.7040    56.3690    45.8420 o          1 9OT      -0.668100
     59 CBX         30.1070    54.5420    45.0090 c3         1 9OT       0.032700
     60 CBW         30.6810    54.3860    43.5690 c3         1 9OT      -0.065400
     61 CBV         29.7030    54.7850    42.4320 c3         1 9OT      -0.208400
     62 CCK         30.3930    54.6460    41.0640 c          1 9OT       0.711000
     63 OCM         31.0270    55.6000    40.6410 o          1 9OT      -0.748500
     64 OCL         30.3390    53.5660    40.4970 o          1 9OT      -0.748500
     65 NCJ         28.8950    53.7180    45.2160 ns         1 9OT      -0.482900
     66 CCN         28.8440    52.3430    45.2440 c          1 9OT       0.626700
     67 OCO         29.8560    51.6620    45.1670 o          1 9OT      -0.630100
     68 CCP         27.4790    51.7330    45.3850 ca         1 9OT      -0.227600
     69 CCU         26.2930    52.4980    45.4890 ca         1 9OT      -0.030000
     70 CCT         25.0760    51.8140    45.6250 ca         1 9OT      -0.183000
     71 CCS         25.0840    50.4170    45.6500 ca         1 9OT       0.583200
     72 FCV         23.9350    49.7240    45.7810 f          1 9OT      -0.197200
     73 NCR         26.2010    49.6710    45.5470 nb         1 9OT      -0.742000
     74 CCQ         27.3750    50.3290    45.4160 ca         1 9OT       0.392900
     75 H2          17.4080    41.4410    43.1360 hc         1 9OT       0.029700
     76 H3          17.5530    42.5730    44.5760 hc         1 9OT       0.029700
     77 H4          19.8450    41.7870    44.9260 hc         1 9OT       0.022700
     78 H5          19.7120    40.6730    43.5790 hc         1 9OT       0.022700
     79 H6          20.9900    42.6950    42.9770 h1         1 9OT       0.041700
     80 H8          18.8060    44.5930    42.8860 hn         1 9OT       0.277500
     81 H9          18.7350    46.2700    44.0430 hn         1 9OT       0.323500
     82 H10         20.0530    46.4190    46.6300 h1         1 9OT       0.034700
     83 H12         21.9860    46.9970    45.2990 hc         1 9OT       0.039700
     84 H13         21.4640    48.3890    46.2170 hc         1 9OT       0.039700
     85 H14         22.2380    48.6750    43.7440 hc         1 9OT       0.045200
     86 H15         20.6800    48.0320    43.2670 hc         1 9OT       0.045200
     87 H16         19.6070    49.9670    44.6090 hc         1 9OT       0.058200
     88 H17         21.2240    50.5880    44.8960 hc         1 9OT       0.058200
     89 H18         20.0640    51.7480    43.0180 h1         1 9OT       0.032200
     90 H19         19.8840    50.2090    42.1600 h1         1 9OT       0.032200
     91 H20         22.0590    50.3890    41.4000 hn         1 9OT       0.321500
     92 H21         23.5550    52.1180    40.5530 h1         1 9OT       0.082700
     93 H22         25.8290    51.1070    41.0450 hc         1 9OT       0.079200
     94 H23         25.3430    50.8530    42.7050 hc         1 9OT       0.079200
     95 H24         24.8290    48.5840    43.1410 ha         1 9OT       0.102000
     96 H25         24.2240    46.2880    43.7010 ha         1 9OT       0.102000
     97 H26         23.1590    44.1320    43.0740 ha         1 9OT       0.083000
     98 H27         22.1190    43.8570    40.8270 ha         1 9OT       0.104000
     99 H28         22.1350    45.7400    39.2040 ha         1 9OT       0.153000
    100 H29         22.7590    48.0560    38.6370 ha         1 9OT       0.135000
    101 H30         23.7930    50.2120    39.2730 ha         1 9OT       0.098000
    102 H31         24.5120    53.8070    42.7250 hn         1 9OT       0.326500
    103 H32         25.3110    55.2840    43.4350 ha         1 9OT       0.131000
    104 H33         26.4360    57.3430    44.1420 ha         1 9OT       0.111500
    105 H34         27.0450    55.7230    39.4750 ha         1 9OT       0.131000
    106 H35         28.1620    57.7950    40.2110 ha         1 9OT       0.111500
    107 H36         28.5120    59.5240    41.8630 h1         1 9OT       0.039700
    108 H37         27.4400    59.5940    43.2860 h1         1 9OT       0.039700
    109 H38         29.6190    57.6070    43.3910 hn         1 9OT       0.351500
    110 H39         30.3470    58.4240    46.5840 h1         1 9OT       0.059700
    111 H40         32.3890    59.2590    44.4680 hc         1 9OT       0.032200
    112 H41         32.0030    60.0540    45.9810 hc         1 9OT       0.032200
    113 H42         32.8060    57.7690    47.0640 hc         1 9OT       0.021200
    114 H43         33.9760    59.0770    46.5390 hc         1 9OT       0.021200
    115 H45         31.7110    56.5570    44.9380 hn         1 9OT       0.406500
    116 H46         30.8750    54.2030    45.7170 h1         1 9OT       0.079700
    117 H47         30.9890    53.3450    43.4170 hc         1 9OT       0.063200
    118 H48         31.5990    54.9790    43.4750 hc         1 9OT       0.063200
    119 H49         29.4400    55.8310    42.6150 hc         1 9OT       0.019700
    120 H50         28.8510    54.0980    42.4990 hc         1 9OT       0.019700
    121 H52         28.0200    54.2120    45.3340 hn         1 9OT       0.334500
    122 H53         26.2950    53.5860    45.4740 ha         1 9OT       0.138000
    123 H54         24.1360    52.3500    45.7150 ha         1 9OT       0.174000
    124 H55         28.2580    49.6960    45.3380 h4         1 9OT       0.027100
@<TRIPOS>BOND
     1     1     2 1   
     2     2     3 1   
     3     2     4 1   
     4     4     5 1   
     5     4    75 1   
     6     4    76 1   
     7     5     6 1   
     8     5    77 1   
     9     5    78 1   
    10     6     7 1   
    11     6    10 1   
    12     6    79 1   
    13     7     8 1   
    14     7     9 1   
    15    10    11 1   
    16    10    80 1   
    17    11    12 2   
    18    11    13 1   
    19    13    14 1   
    20    13    81 1   
    21    14    15 1   
    22    14    18 1   
    23    14    82 1   
    24    15    16 1   
    25    15    17 1   
    26    18    19 1   
    27    18    83 1   
    28    18    84 1   
    29    19    20 1   
    30    19    85 1   
    31    19    86 1   
    32    20    21 1   
    33    20    87 1   
    34    20    88 1   
    35    21    22 1   
    36    21    89 1   
    37    21    90 1   
    38    22    23 1   
    39    22    91 1   
    40    23    24 2   
    41    23    25 1   
    42    25    26 1   
    43    25    37 1   
    44    25    92 1   
    45    26    27 1   
    46    26    93 1   
    47    26    94 1   
    48    27    28 ar  
    49    27    36 ar  
    50    28    29 ar  
    51    28    95 1   
    52    29    30 ar  
    53    29    34 ar  
    54    30    31 ar  
    55    30    96 1   
    56    31    32 ar  
    57    31    97 1   
    58    32    33 ar  
    59    32    98 1   
    60    33    34 ar  
    61    33    99 1   
    62    34    35 ar  
    63    35    36 ar  
    64    35   100 1   
    65    36   101 1   
    66    37    38 1   
    67    37   102 1   
    68    38    39 2   
    69    38    40 1   
    70    40    41 ar  
    71    40    43 ar  
    72    41    42 ar  
    73    41   103 1   
    74    42    45 ar  
    75    42   104 1   
    76    43    44 ar  
    77    43   105 1   
    78    44    45 ar  
    79    44   106 1   
    80    45    46 1   
    81    46    47 1   
    82    46   107 1   
    83    46   108 1   
    84    47    48 1   
    85    47   109 1   
    86    48    49 2   
    87    48    50 1   
    88    50    51 1   
    89    50    56 1   
    90    50   110 1   
    91    51    52 1   
    92    51   111 1   
    93    51   112 1   
    94    52    53 1   
    95    52   113 1   
    96    52   114 1   
    97    53    54 1   
    98    53    55 1   
    99    56    57 1   
   100    56   115 1   
   101    57    58 2   
   102    57    59 1   
   103    59    60 1   
   104    59    65 1   
   105    59   116 1   
   106    60    61 1   
   107    60   117 1   
   108    60   118 1   
   109    61    62 1   
   110    61   119 1   
   111    61   120 1   
   112    62    63 1   
   113    62    64 1   
   114    65    66 1   
   115    65   121 1   
   116    66    67 2   
   117    66    68 1   
   118    68    69 ar  
   119    68    74 ar  
   120    69    70 ar  
   121    69   122 1   
   122    70    71 ar  
   123    70   123 1   
   124    71    72 1   
   125    71    73 ar  
   126    73    74 ar  
   127    74   124 1   
@<TRIPOS>SUBSTRUCTURE
     1 9OT         1 TEMP              0 ****  ****    0 ROOT
