@<TRIPOS>MOLECULE
9OT
  124   127     1     0     0
SMALL
bcc


@<TRIPOS>ATOM
      1 OAQ         15.2800    44.5200    40.2770 o          1 9OT      -0.886800
      2 CAP         16.0930    43.6660    40.6890 c          1 9OT       0.925600
      3 OAR         15.9840    42.4290    40.5840 o          1 9OT      -0.886800
      4 CAO         17.3510    44.2250    41.3880 c3         1 9OT      -0.199400
      5 CAI         18.3220    43.1810    41.9210 c3         1 9OT      -0.034400
      6 CAF         19.6110    43.7330    42.5350 c3         1 9OT      -0.046300
      7 CAG         20.4760    44.4680    41.4750 c          1 9OT       0.921600
      8 OAM         20.9800    43.7370    40.5970 o          1 9OT      -0.859800
      9 OAL         20.5870    45.7060    41.5750 o          1 9OT      -0.859800
     10 NAE         19.3140    44.5510    43.6950 ns         1 9OT      -0.527900
     11 CAD         20.3540    44.9230    44.5100 c          1 9OT       0.774100
     12 OAH         21.3930    44.2700    44.5840 o          1 9OT      -0.706100
     13 N           20.1310    46.0230    45.2630 ns         1 9OT      -0.577900
     14 CA          21.1190    46.6050    46.1350 c3         1 9OT      -0.005300
     15 C           20.4330    47.5330    47.1700 c          1 9OT       0.921600
     16 OXT         21.1810    47.9900    48.0520 o          1 9OT      -0.860300
     17 O           19.2080    47.7370    47.0390 o          1 9OT      -0.860300
     18 CB          22.2380    47.3150    45.3550 c3         1 9OT      -0.066400
     19 CAS         21.7930    48.3410    44.3160 c3         1 9OT      -0.068400
     20 CAT         21.3250    49.6770    44.8790 c3         1 9OT      -0.094400
     21 CAU         20.9420    50.6910    43.8070 c3         1 9OT       0.108000
     22 NAV         21.9850    50.9880    42.8410 ns         1 9OT      -0.547900
     23 CBI         23.0390    51.7680    43.0950 c          1 9OT       0.661100
     24 OBK         23.2320    52.3270    44.1680 o          1 9OT      -0.658100
     25 CBH         24.0260    51.9410    41.9410 c3         1 9OT       0.033700
     26 CBG         25.2520    51.0250    42.1100 c3         1 9OT      -0.056100
     27 CAW         24.9660    49.5520    42.1750 ca         1 9OT      -0.072300
     28 CBB         25.4830    48.7880    43.1880 ca         1 9OT      -0.119000
     29 CBA         25.2840    47.3880    43.2410 ca         1 9OT      -0.030000
     30 CBF         25.8350    46.5940    44.2730 ca         1 9OT      -0.133000
     31 CBE         25.6270    45.2410    44.2960 ca         1 9OT      -0.129000
     32 CBD         24.8530    44.6220    43.2930 ca         1 9OT      -0.136000
     33 CBC         24.3000    45.3670    42.2870 ca         1 9OT      -0.068000
     34 CAZ         24.5080    46.7640    42.2320 ca         1 9OT      -0.032000
     35 CAY         23.9670    47.5690    41.2010 ca         1 9OT      -0.080000
     36 CAX         24.2020    48.9140    41.1650 ca         1 9OT      -0.156000
     37 NBJ         24.4600    53.3150    41.9260 ns         1 9OT      -0.548900
     38 CBL         24.5770    54.0680    40.8130 c          1 9OT       0.703700
     39 OBN         24.2080    53.7020    39.7080 o          1 9OT      -0.620100
     40 CBM         25.2430    55.3850    41.0360 ca         1 9OT      -0.126600
     41 CBS         25.1520    56.0770    42.2430 ca         1 9OT      -0.085000
     42 CBR         25.9210    57.2050    42.4610 ca         1 9OT      -0.119500
     43 CBO         26.0530    55.8900    40.0280 ca         1 9OT      -0.085000
     44 CBP         26.8390    57.0100    40.2570 ca         1 9OT      -0.119500
     45 CBQ         26.8060    57.6580    41.4850 ca         1 9OT      -0.124300
     46 CBT         27.7920    58.7480    41.8140 c3         1 9OT       0.152300
     47 NBU         28.7790    58.2500    42.7480 ns         1 9OT      -0.552900
     48 CCG         28.8520    58.6140    44.0380 c          1 9OT       0.670100
     49 OCH         28.2020    59.5250    44.5310 o          1 9OT      -0.667100
     50 CCA         29.8910    57.8610    44.8670 c3         1 9OT       0.036700
     51 CCB         31.2480    58.5640    44.7370 c3         1 9OT      -0.061400
     52 CCC         32.3290    58.0380    45.6810 c3         1 9OT      -0.210400
     53 CCD         33.1170    56.7850    45.2500 c          1 9OT       0.927600
     54 OCF         34.1640    56.5560    45.8700 o          1 9OT      -0.824800
     55 OCE         32.6500    56.0790    44.3140 o          1 9OT      -0.824800
     56 NBZ         30.0240    56.4720    44.4990 ns         1 9OT      -0.585900
     57 CBY         29.0550    55.5870    44.7520 c          1 9OT       0.654100
     58 OCI         27.9440    55.8960    45.1690 o          1 9OT      -0.668100
     59 CBX         29.4310    54.1350    44.4600 c3         1 9OT       0.032700
     60 CBW         29.5820    53.8820    42.9520 c3         1 9OT      -0.065400
     61 CBV         28.2990    54.0490    42.1510 c3         1 9OT      -0.208400
     62 CCK         28.4990    53.7140    40.6610 c          1 9OT       0.921600
     63 OCM         29.4510    54.2890    40.0910 o          1 9OT      -0.853800
     64 OCL         27.7070    52.9020    40.1380 o          1 9OT      -0.853800
     65 NCJ         28.4340    53.2890    45.0730 ns         1 9OT      -0.549900
     66 CCN         28.6420    51.9940    45.3430 c          1 9OT       0.693700
     67 OCO         29.7030    51.4230    45.1290 o          1 9OT      -0.630100
     68 CCP         27.4960    51.2520    45.9520 ca         1 9OT      -0.292900
     69 CCU         26.1600    51.6430    45.8620 ca         1 9OT      -0.048000
     70 CCT         25.1780    50.8710    46.4520 ca         1 9OT      -0.266300
     71 CCS         25.6010    49.7350    47.1160 ca         1 9OT       0.648500
     72 FCV         24.6920    48.9670    47.7150 f          1 9OT      -0.197200
     73 NCR         26.8350    49.3250    47.2090 nb         1 9OT      -0.742000
     74 CCQ         27.7700    50.0700    46.6300 ca         1 9OT       0.458200
     75 H2          17.8580    44.8890    40.6790 hc         1 9OT       0.029700
     76 H3          17.0100    44.8820    42.1960 hc         1 9OT       0.029700
     77 H4          17.8180    42.5640    42.6700 hc         1 9OT       0.022700
     78 H5          18.6050    42.5040    41.1140 hc         1 9OT       0.022700
     79 H6          20.1860    42.8710    42.8820 h1         1 9OT       0.041700
     80 H8          18.6480    45.2870    43.5110 hn         1 9OT       0.277500
     81 H9          19.2390    46.4940    45.2540 hn         1 9OT       0.323500
     82 H10         21.5970    45.8070    46.7140 h1         1 9OT       0.034700
     83 H12         22.8260    46.5520    44.8410 hc         1 9OT       0.039700
     84 H13         22.9180    47.7820    46.0710 hc         1 9OT       0.039700
     85 H14         22.6370    48.5230    43.6470 hc         1 9OT       0.045200
     86 H15         21.0090    47.9070    43.6870 hc         1 9OT       0.045200
     87 H16         20.4390    49.5420    45.5030 hc         1 9OT       0.058200
     88 H17         22.0990    50.0980    45.5260 hc         1 9OT       0.058200
     89 H18         20.6200    51.6220    44.2780 h1         1 9OT       0.032200
     90 H19         20.0930    50.3150    43.2360 h1         1 9OT       0.032200
     91 H20         21.9070    50.5700    41.9280 hn         1 9OT       0.321500
     92 H21         23.5380    51.7330    40.9880 h1         1 9OT       0.082700
     93 H22         25.9240    51.2390    41.2740 hc         1 9OT       0.079200
     94 H23         25.7850    51.3290    43.0150 hc         1 9OT       0.079200
     95 H24         26.0750    49.2560    43.9670 ha         1 9OT       0.120000
     96 H25         26.4250    47.0730    45.0460 ha         1 9OT       0.120000
     97 H26         26.0550    44.6400    45.0880 ha         1 9OT       0.101000
     98 H27         24.6920    43.5520    43.3270 ha         1 9OT       0.122000
     99 H28         23.6990    44.8920    41.5200 ha         1 9OT       0.171000
    100 H29         23.3690    47.0990    40.4290 ha         1 9OT       0.153000
    101 H30         23.7980    49.5010    40.3480 ha         1 9OT       0.116000
    102 H31         24.8940    53.6410    42.7760 hn         1 9OT       0.326500
    103 H32         24.4850    55.7390    43.0280 ha         1 9OT       0.149000
    104 H33         25.8580    57.7180    43.4130 ha         1 9OT       0.129500
    105 H34         26.1190    55.3740    39.0800 ha         1 9OT       0.149000
    106 H35         27.5100    57.3600    39.4830 ha         1 9OT       0.129500
    107 H36         28.2910    59.0960    40.9070 h1         1 9OT       0.039700
    108 H37         27.2970    59.6070    42.2640 h1         1 9OT       0.039700
    109 H38         29.3170    57.4470    42.4560 hn         1 9OT       0.351500
    110 H39         29.5600    57.9490    45.9080 h1         1 9OT       0.059700
    111 H40         31.5880    58.5170    43.6990 hc         1 9OT       0.032200
    112 H41         31.0810    59.6200    44.9580 hc         1 9OT       0.032200
    113 H42         31.8890    57.8390    46.6650 hc         1 9OT       0.021200
    114 H43         33.0570    58.8330    45.8560 hc         1 9OT       0.021200
    115 H45         31.0010    56.1660    44.3090 hn         1 9OT       0.406500
    116 H46         30.4000    53.9410    44.9320 h1         1 9OT       0.079700
    117 H47         29.9690    52.8670    42.8270 hc         1 9OT       0.063200
    118 H48         30.3560    54.5470    42.5650 hc         1 9OT       0.063200
    119 H49         27.9480    55.0850    42.2220 hc         1 9OT       0.019700
    120 H50         27.5080    53.4230    42.5700 hc         1 9OT       0.019700
    121 H52         27.5740    53.7450    45.3420 hn         1 9OT       0.334500
    122 H53         25.8590    52.5260    45.3130 ha         1 9OT       0.156000
    123 H54         24.1330    51.1350    46.3870 ha         1 9OT       0.192000
    124 H55         28.7880    49.7120    46.7150 h4         1 9OT       0.027100
@<TRIPOS>BOND
     1     1     2 1   
     2     2     3 1   
     3     2     4 1   
     4     4     5 1   
     5     4    75 1   
     6     4    76 1   
     7     5     6 1   
     8     5    77 1   
     9     5    78 1   
    10     6     7 1   
    11     6    10 1   
    12     6    79 1   
    13     7     8 1   
    14     7     9 1   
    15    10    11 1   
    16    10    80 1   
    17    11    12 2   
    18    11    13 1   
    19    13    14 1   
    20    13    81 1   
    21    14    15 1   
    22    14    18 1   
    23    14    82 1   
    24    15    16 1   
    25    15    17 1   
    26    18    19 1   
    27    18    83 1   
    28    18    84 1   
    29    19    20 1   
    30    19    85 1   
    31    19    86 1   
    32    20    21 1   
    33    20    87 1   
    34    20    88 1   
    35    21    22 1   
    36    21    89 1   
    37    21    90 1   
    38    22    23 1   
    39    22    91 1   
    40    23    24 2   
    41    23    25 1   
    42    25    26 1   
    43    25    37 1   
    44    25    92 1   
    45    26    27 1   
    46    26    93 1   
    47    26    94 1   
    48    27    28 ar  
    49    27    36 ar  
    50    28    29 ar  
    51    28    95 1   
    52    29    30 ar  
    53    29    34 ar  
    54    30    31 ar  
    55    30    96 1   
    56    31    32 ar  
    57    31    97 1   
    58    32    33 ar  
    59    32    98 1   
    60    33    34 ar  
    61    33    99 1   
    62    34    35 ar  
    63    35    36 ar  
    64    35   100 1   
    65    36   101 1   
    66    37    38 1   
    67    37   102 1   
    68    38    39 2   
    69    38    40 1   
    70    40    41 ar  
    71    40    43 ar  
    72    41    42 ar  
    73    41   103 1   
    74    42    45 ar  
    75    42   104 1   
    76    43    44 ar  
    77    43   105 1   
    78    44    45 ar  
    79    44   106 1   
    80    45    46 1   
    81    46    47 1   
    82    46   107 1   
    83    46   108 1   
    84    47    48 1   
    85    47   109 1   
    86    48    49 2   
    87    48    50 1   
    88    50    51 1   
    89    50    56 1   
    90    50   110 1   
    91    51    52 1   
    92    51   111 1   
    93    51   112 1   
    94    52    53 1   
    95    52   113 1   
    96    52   114 1   
    97    53    54 1   
    98    53    55 1   
    99    56    57 1   
   100    56   115 1   
   101    57    58 2   
   102    57    59 1   
   103    59    60 1   
   104    59    65 1   
   105    59   116 1   
   106    60    61 1   
   107    60   117 1   
   108    60   118 1   
   109    61    62 1   
   110    61   119 1   
   111    61   120 1   
   112    62    63 1   
   113    62    64 1   
   114    65    66 1   
   115    65   121 1   
   116    66    67 2   
   117    66    68 1   
   118    68    69 ar  
   119    68    74 ar  
   120    69    70 ar  
   121    69   122 1   
   122    70    71 ar  
   123    70   123 1   
   124    71    72 1   
   125    71    73 ar  
   126    73    74 ar  
   127    74   124 1   
@<TRIPOS>SUBSTRUCTURE
     1 9OT         1 TEMP              0 ****  ****    0 ROOT
