@<TRIPOS>MOLECULE
9OW
   15    14     1     0     0
SMALL
bcc


@<TRIPOS>ATOM
      1 N           -6.6130    -9.1470    -0.5380 n8         1 9OW      -0.879800
      2 CA          -5.3290    -8.7060    -1.0390 c3         1 9OW       0.098500
      3 C           -4.3660    -8.2530     0.0600 c          1 9OW       0.621100
      4 O           -4.7270    -7.4470     0.9080 o          1 9OW      -0.584100
      5 CB          -5.4860    -7.5860    -2.0640 c3         1 9OW       0.094700
      6 NB          -3.1330    -8.7690     0.0080 nt         1 9OW      -0.672000
      7 SE          -6.2440    -5.9340    -1.2880 sh         1 9OW      -0.457900
      8 H2          -6.4920    -9.9800     0.0250 hn         1 9OW       0.361800
      9 H           -7.0100    -8.4460     0.0770 hn         1 9OW       0.361800
     10 HA          -4.8860    -9.5440    -1.5860 h1         1 9OW       0.058700
     11 HB2         -6.1640    -7.9240    -2.8480 h1         1 9OW       0.066200
     12 HB3         -4.5220    -7.3550    -2.5180 h1         1 9OW       0.066200
     13 HNB2        -2.4340    -8.4970     0.6800 hn         1 9OW       0.314000
     14 HNB1        -2.8670    -9.4410    -0.6910 hn         1 9OW       0.314000
     15 HE          -6.8840    -5.5220    -2.5290 hs         1 9OW       0.237800
@<TRIPOS>BOND
     1     1     2 1   
     2     1     8 1   
     3     1     9 1   
     4     2     3 1   
     5     2     5 1   
     6     2    10 1   
     7     3     4 2   
     8     3     6 1   
     9     5     7 1   
    10     5    11 1   
    11     5    12 1   
    12     6    13 1   
    13     6    14 1   
    14     7    15 1   
@<TRIPOS>SUBSTRUCTURE
     1 9OW         1 TEMP              0 ****  ****    0 ROOT
