@<TRIPOS>MOLECULE
9OX
   18    18     1     0     0
SMALL
abcg2


@<TRIPOS>ATOM
      1 C01         -5.7510   -16.5590   -18.1490 c3         1 9OX      -0.119400
      2 C02         -5.7080   -15.1460   -18.7170 c3         1 9OX       0.171800
      3 C04         -8.0690   -14.8240   -17.9950 c3         1 9OX       0.130800
      4 C05         -7.6760   -14.9760   -16.5270 c3         1 9OX       0.127600
      5 C07         -5.9700   -16.6270   -16.6430 c3         1 9OX       0.157600
      6 N03         -7.0170   -14.5590   -18.9640 n7         1 9OX      -0.873400
      7 O06         -7.2560   -16.2790   -16.1940 os         1 9OX      -0.450000
      8 H1          -6.4860   -17.1710   -18.6810 hc         1 9OX       0.056200
      9 H2          -4.7770   -17.0190   -18.3390 hc         1 9OX       0.056200
     10 H3          -5.1680   -15.1650   -19.6680 h1         1 9OX       0.028200
     11 H4          -5.0930   -14.5370   -18.0370 h1         1 9OX       0.028200
     12 H5          -8.7860   -14.0040   -18.0720 h1         1 9OX       0.054200
     13 H6          -8.6220   -15.7270   -18.2750 h1         1 9OX       0.054200
     14 H7          -6.9170   -14.2290   -16.2510 h1         1 9OX       0.043200
     15 H8          -8.5570   -14.7820   -15.9110 h1         1 9OX       0.043200
     16 H9          -5.8030   -17.6510   -16.3000 h1         1 9OX       0.040700
     17 H10         -5.2110   -15.9960   -16.1570 h1         1 9OX       0.040700
     18 H11         -6.9050   -13.5610   -19.0670 hn         1 9OX       0.409000
@<TRIPOS>BOND
     1     1     2 1   
     2     1     5 1   
     3     1     8 1   
     4     1     9 1   
     5     2     6 1   
     6     2    10 1   
     7     2    11 1   
     8     3     4 1   
     9     3     6 1   
    10     3    12 1   
    11     3    13 1   
    12     4     7 1   
    13     4    14 1   
    14     4    15 1   
    15     5     7 1   
    16     5    16 1   
    17     5    17 1   
    18     6    18 1   
@<TRIPOS>SUBSTRUCTURE
     1 9OX         1 TEMP              0 ****  ****    0 ROOT
