@<TRIPOS>MOLECULE
9OX
   18    18     1     0     0
SMALL
No Charge or Current Charge


@<TRIPOS>ATOM
      1 C01         -5.7630   -16.5860   -18.1620 c3         1 9OX      -0.119400
      2 C02         -5.6750   -15.1490   -18.7190 c3         1 9OX       0.171800
      3 C04         -8.1140   -14.8350   -18.0120 c3         1 9OX       0.130800
      4 C05         -7.7020   -14.9310   -16.5150 c3         1 9OX       0.127600
      5 C07         -5.9230   -16.6450   -16.6250 c3         1 9OX       0.157600
      6 N03         -6.9960   -14.5230   -18.9490 n7         1 9OX      -0.873400
      7 O06         -7.2590   -16.2760   -16.2170 os         1 9OX      -0.450000
      8 H1          -6.5560   -17.1560   -18.6600 hc         1 9OX       0.056200
      9 H2          -4.8230   -17.0920   -18.4100 hc         1 9OX       0.056200
     10 H3          -5.1210   -15.1700   -19.6670 h1         1 9OX       0.028200
     11 H4          -5.0830   -14.5410   -18.0200 h1         1 9OX       0.028200
     12 H5          -8.8920   -14.0650   -18.1070 h1         1 9OX       0.054200
     13 H6          -8.5880   -15.7860   -18.2910 h1         1 9OX       0.054200
     14 H7          -6.9380   -14.1820   -16.2670 h1         1 9OX       0.043200
     15 H8          -8.5900   -14.7060   -15.9100 h1         1 9OX       0.043200
     16 H9          -5.7160   -17.6710   -16.2960 h1         1 9OX       0.040700
     17 H10         -5.1770   -15.9940   -16.1490 h1         1 9OX       0.040700
     18 H11         -6.8560   -13.5050   -18.9730 hn         1 9OX       0.409000
@<TRIPOS>BOND
     1     1     2 1   
     2     1     5 1   
     3     1     8 1   
     4     1     9 1   
     5     2     6 1   
     6     2    10 1   
     7     2    11 1   
     8     3     4 1   
     9     3     6 1   
    10     3    12 1   
    11     3    13 1   
    12     4     7 1   
    13     4    14 1   
    14     4    15 1   
    15     5     7 1   
    16     5    16 1   
    17     5    17 1   
    18     6    18 1   
@<TRIPOS>SUBSTRUCTURE
     1 9OX         1 TEMP              0 ****  ****    0 ROOT
