@<TRIPOS>MOLECULE
9OZ
   60    64     1     0     0
SMALL
No Charge or Current Charge


@<TRIPOS>ATOM
      1 C1         -43.4510   -48.2950   -19.2910 c3         1 9OZ       0.160900
      2 C2         -41.3790   -47.8560   -18.0490 ca         1 9OZ       0.587300
      3 C3         -40.4840   -48.2710   -17.0510 ca         1 9OZ      -0.183000
      4 C4         -39.3460   -47.4980   -16.7690 ca         1 9OZ      -0.027300
      5 C5         -38.3590   -47.9080   -15.6840 c3         1 9OZ       0.150300
      6 C6         -39.5700   -47.8270   -13.4730 c          1 9OZ       0.609100
      7 C7         -39.6850   -46.7920   -12.2660 cy         1 9OZ      -0.176700
      8 C8         -41.2660   -46.5100   -12.4540 cy         1 9OZ      -0.055400
      9 C9         -41.3520   -47.4700   -11.2510 cy         1 9OZ      -0.107000
     10 C10        -39.8800   -47.8680   -11.0730 cy         1 9OZ      -0.055400
     11 C11        -42.0320   -46.8850   -10.0100 cy         1 9OZ       0.161800
     12 C12        -44.3410   -48.0830    -9.7450 c3         1 9OZ       0.225800
     13 C13        -45.3790   -48.8730   -10.5680 c3         1 9OZ      -0.087100
     14 C14        -45.0220   -46.9270    -8.9860 ca         1 9OZ      -0.073300
     15 C15        -45.1480   -45.6750    -9.6330 ca         1 9OZ      -0.089000
     16 C16        -45.7480   -44.5830    -8.9900 ca         1 9OZ      -0.110000
     17 C17        -46.2440   -44.7230    -7.6890 ca         1 9OZ      -0.100000
     18 C18        -46.1560   -45.9620    -7.0300 ca         1 9OZ      -0.040000
     19 C19        -46.6790   -46.0810    -5.7280 ca         1 9OZ      -0.097000
     20 C20        -46.6210   -47.3080    -5.0520 ca         1 9OZ      -0.111000
     21 C21        -46.0440   -48.4220    -5.6770 ca         1 9OZ      -0.108000
     22 C22        -45.5170   -48.3110    -6.9750 ca         1 9OZ      -0.106000
     23 C23        -45.5540   -47.0770    -7.6710 ca         1 9OZ      -0.025000
     24 C24        -42.3560   -48.6160   -11.3910 cy         1 9OZ       0.161800
     25 C25        -39.1610   -46.3250   -17.5180 ca         1 9OZ      -0.194000
     26 C26        -40.1020   -45.9800   -18.5010 ca         1 9OZ       0.379900
     27 N1         -38.6960   -47.2980   -14.3950 ns         1 9OZ      -0.512900
     28 N2         -43.2250   -47.6420   -10.5940 nq         1 9OZ      -0.713600
     29 N3         -41.1950   -46.7280   -18.7690 nb         1 9OZ      -0.755000
     30 O1         -42.4790   -48.6470   -18.2870 os         1 9OZ      -0.463300
     31 O2         -40.0850   -48.9140   -13.7130 o          1 9OZ      -0.584100
     32 H1         -44.2500   -49.0460   -19.3290 h1         1 9OZ       0.045700
     33 H2         -43.9100   -47.3220   -19.0690 h1         1 9OZ       0.045700
     34 H3         -42.9870   -48.2430   -20.2850 h1         1 9OZ       0.045700
     35 H4         -40.6850   -49.1850   -16.5010 ha         1 9OZ       0.135000
     36 H5         -38.3420   -49.0010   -15.5860 h1         1 9OZ       0.062200
     37 H6         -37.3480   -47.5880   -15.9700 h1         1 9OZ       0.062200
     38 H7         -38.9510   -45.9820   -12.2050 hc         1 9OZ       0.066700
     39 H8         -41.5730   -45.4780   -12.2500 hc         1 9OZ       0.064950
     40 H9         -41.7540   -46.8390   -13.3810 hc         1 9OZ       0.064950
     41 H10        -39.6230   -48.9170   -11.2580 hc         1 9OZ       0.064950
     42 H11        -39.4350   -47.5680   -10.1180 hc         1 9OZ       0.064950
     43 H12        -41.6540   -47.2860    -9.0620 h1         1 9OZ       0.050950
     44 H13        -42.1130   -45.7930    -9.9730 h1         1 9OZ       0.050950
     45 H14        -43.8910   -48.7720    -9.0210 h1         1 9OZ       0.023700
     46 H15        -46.1930   -49.2210    -9.9220 hc         1 9OZ       0.042700
     47 H16        -45.8100   -48.2430   -11.3550 hc         1 9OZ       0.042700
     48 H17        -44.9230   -49.7530   -11.0370 hc         1 9OZ       0.042700
     49 H18        -44.7740   -45.5450   -10.6450 ha         1 9OZ       0.133000
     50 H19        -45.8270   -43.6270    -9.5020 ha         1 9OZ       0.113000
     51 H20        -46.7060   -43.8710    -7.1960 ha         1 9OZ       0.112000
     52 H21        -47.1360   -45.2230    -5.2410 ha         1 9OZ       0.112000
     53 H22        -47.0290   -47.3970    -4.0470 ha         1 9OZ       0.113000
     54 H23        -46.0070   -49.3760    -5.1560 ha         1 9OZ       0.111000
     55 H24        -45.0940   -49.2060    -7.4200 ha         1 9OZ       0.111000
     56 H25        -42.6860   -48.8460   -12.4110 h1         1 9OZ       0.050950
     57 H26        -42.0700   -49.5270   -10.8510 h1         1 9OZ       0.050950
     58 H27        -38.3030   -45.6810   -17.3450 ha         1 9OZ       0.123000
     59 H28        -39.9770   -45.0750   -19.0930 h4         1 9OZ       0.017100
     60 H29        -38.2920   -46.3970   -14.1710 hn         1 9OZ       0.315500
@<TRIPOS>BOND
     1     1    30 1   
     2     1    32 1   
     3     1    33 1   
     4     1    34 1   
     5     2     3 ar  
     6     2    29 ar  
     7     2    30 1   
     8     3     4 ar  
     9     3    35 1   
    10     4     5 1   
    11     4    25 ar  
    12     5    27 1   
    13     5    36 1   
    14     5    37 1   
    15     6     7 1   
    16     6    27 1   
    17     6    31 2   
    18     7     8 1   
    19     7    10 1   
    20     7    38 1   
    21     8     9 1   
    22     8    39 1   
    23     8    40 1   
    24     9    10 1   
    25     9    11 1   
    26     9    24 1   
    27    10    41 1   
    28    10    42 1   
    29    11    28 1   
    30    11    43 1   
    31    11    44 1   
    32    12    13 1   
    33    12    14 1   
    34    12    28 1   
    35    12    45 1   
    36    13    46 1   
    37    13    47 1   
    38    13    48 1   
    39    14    15 ar  
    40    14    23 ar  
    41    15    16 ar  
    42    15    49 1   
    43    16    17 ar  
    44    16    50 1   
    45    17    18 ar  
    46    17    51 1   
    47    18    19 ar  
    48    18    23 ar  
    49    19    20 ar  
    50    19    52 1   
    51    20    21 ar  
    52    20    53 1   
    53    21    22 ar  
    54    21    54 1   
    55    22    23 ar  
    56    22    55 1   
    57    24    28 1   
    58    24    56 1   
    59    24    57 1   
    60    25    26 ar  
    61    25    58 1   
    62    26    29 ar  
    63    26    59 1   
    64    27    60 1   
@<TRIPOS>SUBSTRUCTURE
     1 9OZ         1 TEMP              0 ****  ****    0 ROOT
