@<TRIPOS>MOLECULE
9OZ
   60    64     1     0     0
SMALL
abcg2


@<TRIPOS>ATOM
      1 C1         -39.2050   -47.1950   -21.9240 c3         1 9OZ       0.160900
      2 C2         -39.3820   -47.4800   -19.5830 ca         1 9OZ       0.587300
      3 C3         -39.3230   -48.3310   -18.4740 ca         1 9OZ      -0.183000
      4 C4         -39.5280   -47.7950   -17.2180 ca         1 9OZ      -0.027300
      5 C5         -39.3990   -48.6790   -16.0020 c3         1 9OZ       0.150300
      6 C6         -41.3890   -48.2200   -14.6590 c          1 9OZ       0.609100
      7 C7         -41.8670   -47.7290   -13.3180 cy         1 9OZ      -0.176700
      8 C8         -43.3760   -47.6710   -13.0480 cy         1 9OZ      -0.055400
      9 C9         -43.1020   -48.2320   -11.6450 cy         1 9OZ      -0.107000
     10 C10        -41.7390   -48.7210   -12.1340 cy         1 9OZ      -0.055400
     11 C11        -43.2070   -47.2530   -10.4700 cy         1 9OZ       0.161800
     12 C12        -44.7830   -48.0490    -8.7090 c3         1 9OZ       0.225800
     13 C13        -46.0110   -48.9420    -8.5460 c3         1 9OZ      -0.087100
     14 C14        -45.0230   -46.7100    -8.0440 ca         1 9OZ      -0.073300
     15 C15        -45.4820   -45.6490    -8.7840 ca         1 9OZ      -0.089000
     16 C16        -45.7620   -44.4000    -8.1950 ca         1 9OZ      -0.110000
     17 C17        -45.5840   -44.2160    -6.8540 ca         1 9OZ      -0.100000
     18 C18        -45.1200   -45.2800    -6.0460 ca         1 9OZ      -0.040000
     19 C19        -44.9420   -45.1050    -4.6540 ca         1 9OZ      -0.097000
     20 C20        -44.5040   -46.1320    -3.8650 ca         1 9OZ      -0.111000
     21 C21        -44.2210   -47.3850    -4.4440 ca         1 9OZ      -0.108000
     22 C22        -44.3800   -47.5830    -5.7900 ca         1 9OZ      -0.106000
     23 C23        -44.8340   -46.5420    -6.6390 ca         1 9OZ      -0.025000
     24 C24        -44.1380   -49.0660   -10.8940 cy         1 9OZ       0.161800
     25 C25        -39.7970   -46.4280   -17.1200 ca         1 9OZ      -0.194000
     26 C26        -39.8410   -45.6850   -18.2810 ca         1 9OZ       0.379900
     27 N1         -40.0510   -48.1820   -14.8210 ns         1 9OZ      -0.512900
     28 N2         -44.4850   -47.8750   -10.1110 nq         1 9OZ      -0.713600
     29 N3         -39.6360   -46.1920   -19.4970 nb         1 9OZ      -0.755000
     30 O1         -39.1690   -48.0340   -20.7800 os         1 9OZ      -0.463300
     31 O2         -42.1360   -48.6610   -15.5190 o          1 9OZ      -0.584100
     32 H1         -38.9880   -47.8400   -22.7720 h1         1 9OZ       0.045700
     33 H2         -40.1850   -46.7370   -22.0630 h1         1 9OZ       0.045700
     34 H3         -38.4560   -46.4040   -21.8730 h1         1 9OZ       0.045700
     35 H4         -39.1170   -49.3860   -18.6080 ha         1 9OZ       0.135000
     36 H5         -39.7630   -49.6800   -16.2420 h1         1 9OZ       0.062200
     37 H6         -38.3390   -48.7870   -15.7670 h1         1 9OZ       0.062200
     38 H7         -41.3810   -46.7820   -13.0680 hc         1 9OZ       0.066700
     39 H8         -43.8630   -46.6970   -13.1170 hc         1 9OZ       0.064950
     40 H9         -43.9210   -48.3850   -13.6670 hc         1 9OZ       0.064950
     41 H10        -41.7820   -49.7600   -12.4720 hc         1 9OZ       0.064950
     42 H11        -40.8860   -48.6030   -11.4650 hc         1 9OZ       0.064950
     43 H12        -42.4190   -47.4310    -9.7220 h1         1 9OZ       0.050950
     44 H13        -43.2480   -46.1830   -10.6910 h1         1 9OZ       0.050950
     45 H14        -43.9300   -48.5470    -8.2170 h1         1 9OZ       0.023700
     46 H15        -46.2610   -49.0750    -7.4940 hc         1 9OZ       0.042700
     47 H16        -46.8730   -48.4980    -9.0460 hc         1 9OZ       0.042700
     48 H17        -45.8400   -49.9330    -8.9710 hc         1 9OZ       0.042700
     49 H18        -45.6350   -45.7760    -9.8470 ha         1 9OZ       0.133000
     50 H19        -46.1200   -43.5890    -8.8160 ha         1 9OZ       0.113000
     51 H20        -45.7960   -43.2590    -6.3930 ha         1 9OZ       0.112000
     52 H21        -45.1620   -44.1360    -4.2200 ha         1 9OZ       0.112000
     53 H22        -44.3740   -45.9880    -2.8010 ha         1 9OZ       0.113000
     54 H23        -43.8730   -48.1970    -3.8200 ha         1 9OZ       0.111000
     55 H24        -44.1530   -48.5570    -6.2000 ha         1 9OZ       0.111000
     56 H25        -44.9530   -49.5090   -11.4720 h1         1 9OZ       0.050950
     57 H26        -43.6610   -49.8550   -10.2930 h1         1 9OZ       0.050950
     58 H27        -39.9710   -45.9520   -16.1650 ha         1 9OZ       0.123000
     59 H28        -40.0490   -44.6220   -18.2380 h4         1 9OZ       0.017100
     60 H29        -39.4820   -47.7760   -14.0970 hn         1 9OZ       0.315500
@<TRIPOS>BOND
     1     1    30 1   
     2     1    32 1   
     3     1    33 1   
     4     1    34 1   
     5     2     3 ar  
     6     2    29 ar  
     7     2    30 1   
     8     3     4 ar  
     9     3    35 1   
    10     4     5 1   
    11     4    25 ar  
    12     5    27 1   
    13     5    36 1   
    14     5    37 1   
    15     6     7 1   
    16     6    27 1   
    17     6    31 2   
    18     7     8 1   
    19     7    10 1   
    20     7    38 1   
    21     8     9 1   
    22     8    39 1   
    23     8    40 1   
    24     9    10 1   
    25     9    11 1   
    26     9    24 1   
    27    10    41 1   
    28    10    42 1   
    29    11    28 1   
    30    11    43 1   
    31    11    44 1   
    32    12    13 1   
    33    12    14 1   
    34    12    28 1   
    35    12    45 1   
    36    13    46 1   
    37    13    47 1   
    38    13    48 1   
    39    14    15 ar  
    40    14    23 ar  
    41    15    16 ar  
    42    15    49 1   
    43    16    17 ar  
    44    16    50 1   
    45    17    18 ar  
    46    17    51 1   
    47    18    19 ar  
    48    18    23 ar  
    49    19    20 ar  
    50    19    52 1   
    51    20    21 ar  
    52    20    53 1   
    53    21    22 ar  
    54    21    54 1   
    55    22    23 ar  
    56    22    55 1   
    57    24    28 1   
    58    24    56 1   
    59    24    57 1   
    60    25    26 ar  
    61    25    58 1   
    62    26    29 ar  
    63    26    59 1   
    64    27    60 1   
@<TRIPOS>SUBSTRUCTURE
     1 9OZ         1 TEMP              0 ****  ****    0 ROOT
