@<TRIPOS>MOLECULE
9P0
   76    79     1     0     0
SMALL
No Charge or Current Charge


@<TRIPOS>ATOM
      1 C1         -19.7220    25.4390   -28.6500 c3         1 9P0       0.092800
      2 C3         -18.8340    25.8620   -26.3330 c3         1 9P0       0.092800
      3 O5         -22.2420    25.6290   -27.5120 o          1 9P0      -0.593100
      4 C8         -23.1020    25.1950   -24.8810 c3         1 9P0       0.052600
      5 C10        -23.6880    22.9420   -23.2530 c3         1 9P0       0.108900
      6 C11        -24.3250    22.3240   -21.9960 ca         1 9P0      -0.018300
      7 C12        -23.5940    22.1690   -20.7730 ca         1 9P0      -0.123600
      8 C13        -24.2370    21.5930   -19.6540 ca         1 9P0      -0.088000
      9 C14        -25.5620    21.1530   -19.7250 ca         1 9P0      -0.124000
     10 C15        -26.2780    21.2990   -20.9150 ca         1 9P0      -0.085000
     11 C16        -25.6890    21.8910   -22.0530 cp         1 9P0       0.012000
     12 C19        -27.6660    23.4490   -24.9380 ca         1 9P0      -0.093500
     13 C20        -28.1860    22.3080   -25.5940 ca         1 9P0      -0.118600
     14 C21        -27.8750    21.0320   -25.0680 ca         1 9P0      -0.093500
     15 C22        -27.0670    20.9030   -23.9250 ca         1 9P0      -0.127000
     16 O28        -21.3350    22.4160   -21.6450 os         1 9P0      -0.457100
     17 C30        -19.4010    22.9920   -22.9500 c3         1 9P0       0.019700
     18 C33        -19.0200    21.5690   -25.0130 c          1 9P0       0.599100
     19 C35        -19.6170    20.2900   -25.6830 c5         1 9P0       0.031700
     20 N2         -19.9810    25.4970   -27.1950 n          1 9P0      -0.404800
     21 C4         -21.3150    25.5370   -26.7140 c          1 9P0       0.591100
     22 C6         -21.5870    25.3600   -25.1820 c3         1 9P0       0.043700
     23 S9         -23.4630    24.7790   -23.1030 ss         1 9P0      -0.432000
     24 C17        -26.5370    22.0390   -23.2750 cp         1 9P0      -0.107000
     25 C18        -26.8600    23.3140   -23.7950 ca         1 9P0      -0.127000
     26 O24        -29.3150    23.5740   -27.2440 o          1 9P0      -0.716000
     27 O25        -29.4870    21.4360   -27.3680 o          1 9P0      -0.716000
     28 C26        -22.1550    22.6020   -20.5640 c          1 9P0       0.622700
     29 O27        -21.7580    23.0500   -19.4950 o          1 9P0      -0.480000
     30 C29        -19.9370    22.7520   -21.5250 c3         1 9P0       0.155600
     31 N32        -19.6770    21.8260   -23.8290 ns         1 9P0      -0.501900
     32 O34        -18.1180    22.2810   -25.4350 o          1 9P0      -0.596100
     33 C37        -18.4850    19.2450   -25.9180 c5         1 9P0      -0.085400
     34 C38        -19.0560    18.4170   -27.0960 c5         1 9P0      -0.094400
     35 C39        -19.5930    19.5240   -28.0400 c5         1 9P0       0.110000
     36 N40        -20.1150    20.5070   -27.0680 n          1 9P0      -0.407800
     37 C41        -21.0410    21.5200   -27.3810 c          1 9P0       0.619100
     38 O42        -21.5260    22.2110   -26.4960 o          1 9P0      -0.619100
     39 C43        -21.4120    21.7530   -28.8440 c3         1 9P0      -0.172100
     40 C44        -19.9930    24.3220   -23.4960 c          1 9P0       0.597100
     41 O45        -19.7470    25.3970   -22.9660 o          1 9P0      -0.607100
     42 N46        -20.7950    24.2410   -24.6180 ns         1 9P0      -0.486900
     43 H1         -18.6750    25.1680   -28.8380 h1         1 9P0       0.039700
     44 H2         -20.3660    24.6820   -29.1160 h1         1 9P0       0.039700
     45 H3         -19.9280    26.4180   -29.1020 h1         1 9P0       0.039700
     46 H4         -19.1430    26.5810   -25.5650 h1         1 9P0       0.039700
     47 H5         -18.4300    24.9630   -25.8510 h1         1 9P0       0.039700
     48 H6         -18.0400    26.3240   -26.9340 h1         1 9P0       0.039700
     49 H7         -23.6190    26.1290   -25.1370 h1         1 9P0       0.093200
     50 H8         -23.5170    24.4050   -25.5220 h1         1 9P0       0.093200
     51 H9         -24.3170    22.7480   -24.1280 h1         1 9P0       0.078700
     52 H10        -22.7330    22.4610   -23.4890 h1         1 9P0       0.078700
     53 H11        -23.6960    21.4720   -18.7170 ha         1 9P0       0.118000
     54 H12        -26.0360    20.7030   -18.8550 ha         1 9P0       0.110000
     55 H13        -27.3120    20.9650   -20.9600 ha         1 9P0       0.126000
     56 H15        -28.2610    20.1330   -25.5440 ha         1 9P0       0.130000
     57 H16        -26.8430    19.9110   -23.5410 ha         1 9P0       0.097500
     58 H17        -18.3140    23.1380   -22.8940 h1         1 9P0       0.098700
     59 H18        -20.4160    19.8710   -25.0570 h1         1 9P0       0.069700
     60 H19        -21.2580    26.2940   -24.7100 h1         1 9P0       0.093700
     61 H20        -26.4800    24.2070   -23.3030 ha         1 9P0       0.097500
     62 H22        -19.3820    21.9370   -21.0420 h1         1 9P0       0.073200
     63 H23        -19.7870    23.6650   -20.9330 h1         1 9P0       0.073200
     64 H24        -20.4110    21.1830   -23.5530 hn         1 9P0       0.334500
     65 H25        -18.2830    18.6380   -25.0280 hc         1 9P0       0.063200
     66 H26        -17.5410    19.7230   -26.2080 hc         1 9P0       0.063200
     67 H27        -19.8670    17.7600   -26.7590 hc         1 9P0       0.056200
     68 H28        -18.3020    17.7860   -27.5790 hc         1 9P0       0.056200
     69 H29        -18.7900    19.9660   -28.6430 h1         1 9P0       0.049700
     70 H30        -20.3690    19.1370   -28.7130 h1         1 9P0       0.049700
     71 H31        -22.0640    22.6230   -28.9750 hc         1 9P0       0.063700
     72 H32        -20.4970    21.8340   -29.4420 hc         1 9P0       0.063700
     73 H33        -21.8810    20.8470   -29.2410 hc         1 9P0       0.063700
     74 H34        -20.9170    23.3190   -25.0320 hn         1 9P0       0.349500
     75 C23        -29.0620    22.4500   -26.8300 c          1 9P0       0.712600
     76 H14        -27.8890    24.4460   -25.3100 ha         1 9P0       0.130000
@<TRIPOS>BOND
     1     1    20 1   
     2     1    43 1   
     3     1    44 1   
     4     1    45 1   
     5     2    20 1   
     6     2    46 1   
     7     2    47 1   
     8     2    48 1   
     9     3    21 2   
    10     4    22 1   
    11     4    23 1   
    12     4    49 1   
    13     4    50 1   
    14     5     6 1   
    15     5    23 1   
    16     5    51 1   
    17     5    52 1   
    18     6     7 ar  
    19     6    11 ar  
    20     7     8 ar  
    21     7    28 1   
    22     8     9 ar  
    23     8    53 1   
    24     9    10 ar  
    25     9    54 1   
    26    10    11 ar  
    27    10    55 1   
    28    11    24 1   
    29    12    13 ar  
    30    12    25 ar  
    31    12    76 1   
    32    13    14 ar  
    33    13    75 1   
    34    14    15 ar  
    35    14    56 1   
    36    15    24 ar  
    37    15    57 1   
    38    16    28 1   
    39    16    30 1   
    40    17    30 1   
    41    17    31 1   
    42    17    40 1   
    43    17    58 1   
    44    18    19 1   
    45    18    31 1   
    46    18    32 2   
    47    19    33 1   
    48    19    36 1   
    49    19    59 1   
    50    20    21 1   
    51    21    22 1   
    52    22    42 1   
    53    22    60 1   
    54    24    25 ar  
    55    25    61 1   
    56    26    75 1   
    57    27    75 1   
    58    28    29 2   
    59    30    62 1   
    60    30    63 1   
    61    31    64 1   
    62    33    34 1   
    63    33    65 1   
    64    33    66 1   
    65    34    35 1   
    66    34    67 1   
    67    34    68 1   
    68    35    36 1   
    69    35    69 1   
    70    35    70 1   
    71    36    37 1   
    72    37    38 2   
    73    37    39 1   
    74    39    71 1   
    75    39    72 1   
    76    39    73 1   
    77    40    41 2   
    78    40    42 1   
    79    42    74 1   
@<TRIPOS>SUBSTRUCTURE
     1 9P0         1 TEMP              0 ****  ****    0 ROOT
