@<TRIPOS>MOLECULE
9P0
   76    79     1     0     0
SMALL
bcc


@<TRIPOS>ATOM
      1 C1         -19.8020    25.8340   -28.4290 c3         1 9P0       0.092800
      2 C3         -18.9820    25.8500   -26.0880 c3         1 9P0       0.092800
      3 O5         -22.2610    25.4190   -27.4940 o          1 9P0      -0.593100
      4 C8         -23.1810    25.1020   -24.9590 c3         1 9P0       0.004700
      5 C10        -23.8740    22.9240   -23.3120 c3         1 9P0       0.061000
      6 C11        -24.4420    22.4720   -21.9970 ca         1 9P0      -0.018300
      7 C12        -23.6550    22.4140   -20.8350 ca         1 9P0      -0.123600
      8 C13        -24.2130    22.0440   -19.6140 ca         1 9P0      -0.106000
      9 C14        -25.5470    21.6880   -19.5330 ca         1 9P0      -0.142000
     10 C15        -26.3310    21.7410   -20.6700 ca         1 9P0      -0.103000
     11 C16        -25.8060    22.1510   -21.8960 cp         1 9P0       0.012000
     12 C19        -27.9010    23.4110   -24.7890 ca         1 9P0      -0.111500
     13 C20        -28.6230    22.2750   -25.1470 ca         1 9P0      -0.118600
     14 C21        -28.3880    21.1030   -24.4340 ca         1 9P0      -0.111500
     15 C22        -27.4650    21.0660   -23.4000 ca         1 9P0      -0.145000
     16 O28        -21.4890    22.1920   -21.7450 os         1 9P0      -0.433900
     17 C30        -19.6360    22.6890   -23.1800 c3         1 9P0       0.019700
     18 C33        -19.1560    21.3650   -25.1760 c          1 9P0       0.666100
     19 C35        -19.5910    20.1590   -25.9960 c5         1 9P0       0.031700
     20 N2         -20.0950    25.7340   -27.0090 n          1 9P0      -0.471800
     21 C4         -21.3660    25.4680   -26.6610 c          1 9P0       0.658100
     22 C6         -21.6730    25.2250   -25.1750 c3         1 9P0       0.043700
     23 S9         -23.6290    24.7320   -23.2380 ss         1 9P0      -0.336200
     24 C17        -26.7420    22.2040   -23.0460 cp         1 9P0      -0.107000
     25 C18        -26.9780    23.3820   -23.7550 ca         1 9P0      -0.145000
     26 O24        -29.7860    23.4080   -26.8630 o          1 9P0      -0.821300
     27 O25        -30.2530    21.2540   -26.5180 o          1 9P0      -0.821300
     28 C26        -22.1980    22.7390   -20.7640 c          1 9P0       0.671700
     29 O27        -21.7160    23.3640   -19.8550 o          1 9P0      -0.529000
     30 C29        -20.0670    22.3540   -21.7640 c3         1 9P0       0.132400
     31 N32        -19.9110    21.6060   -24.0850 ns         1 9P0      -0.568900
     32 O34        -18.1770    22.0270   -25.4710 o          1 9P0      -0.596100
     33 C37        -18.5900    19.0030   -25.8770 c5         1 9P0      -0.085400
     34 C38        -18.6510    18.3430   -27.2510 c5         1 9P0      -0.094400
     35 C39        -18.7870    19.5300   -28.1940 c5         1 9P0       0.110000
     36 N40        -19.5860    20.4680   -27.4140 n          1 9P0      -0.474800
     37 C41        -20.3070    21.4950   -27.8920 c          1 9P0       0.686100
     38 O42        -20.9840    22.1980   -27.1450 o          1 9P0      -0.619100
     39 C43        -20.2500    21.7320   -29.3770 c3         1 9P0      -0.172100
     40 C44        -20.2450    24.0380   -23.5810 c          1 9P0       0.664100
     41 O45        -20.0370    25.0140   -22.8780 o          1 9P0      -0.607100
     42 N46        -20.9720    24.0540   -24.7060 ns         1 9P0      -0.553900
     43 H1         -18.7330    25.9760   -28.5580 h1         1 9P0       0.039700
     44 H2         -20.0910    24.9270   -28.9600 h1         1 9P0       0.039700
     45 H3         -20.3180    26.6780   -28.8890 h1         1 9P0       0.039700
     46 H4         -19.2990    26.2000   -25.1110 h1         1 9P0       0.039700
     47 H5         -18.4510    24.9040   -25.9650 h1         1 9P0       0.039700
     48 H6         -18.2800    26.5880   -26.4740 h1         1 9P0       0.039700
     49 H7         -23.6670    26.0430   -25.2170 h1         1 9P0       0.093200
     50 H8         -23.6140    24.3310   -25.5960 h1         1 9P0       0.093200
     51 H9         -24.5660    22.7050   -24.1230 h1         1 9P0       0.078700
     52 H10        -22.9330    22.4330   -23.5430 h1         1 9P0       0.078700
     53 H11        -23.5970    22.0170   -18.7250 ha         1 9P0       0.136000
     54 H12        -25.9730    21.3810   -18.5880 ha         1 9P0       0.128000
     55 H13        -27.3810    21.4840   -20.6080 ha         1 9P0       0.144000
     56 H15        -28.9340    20.2050   -24.6910 ha         1 9P0       0.148000
     57 H16        -27.2970    20.1380   -22.8650 ha         1 9P0       0.115500
     58 H17        -18.5540    22.8420   -23.1440 h1         1 9P0       0.098700
     59 H18        -20.5890    19.8290   -25.6880 h1         1 9P0       0.069700
     60 H19        -21.3170    26.0770   -24.5930 h1         1 9P0       0.093700
     61 H20        -26.4370    24.2840   -23.4940 ha         1 9P0       0.115500
     62 H22        -19.6140    21.4140   -21.4460 h1         1 9P0       0.073200
     63 H23        -19.7470    23.1410   -21.0860 h1         1 9P0       0.073200
     64 H24        -20.7390    21.0480   -23.9420 hn         1 9P0       0.334500
     65 H25        -18.8470    18.3300   -25.0610 hc         1 9P0       0.063200
     66 H26        -17.5850    19.3880   -25.6920 hc         1 9P0       0.063200
     67 H27        -19.5310    17.7030   -27.3280 hc         1 9P0       0.056200
     68 H28        -17.7720    17.7380   -27.4700 hc         1 9P0       0.056200
     69 H29        -17.8100    19.9590   -28.4370 h1         1 9P0       0.049700
     70 H30        -19.2820    19.2650   -29.1270 h1         1 9P0       0.049700
     71 H31        -20.7810    22.6480   -29.6230 hc         1 9P0       0.063700
     72 H32        -19.2220    21.8140   -29.7330 hc         1 9P0       0.063700
     73 H33        -20.7150    20.9070   -29.9200 hc         1 9P0       0.063700
     74 H34        -21.0790    23.2030   -25.2440 hn         1 9P0       0.349500
     75 C23        -29.6470    22.3160   -26.2800 c          1 9P0       0.923200
     76 H14        -28.0690    24.3370   -25.3220 ha         1 9P0       0.148000
@<TRIPOS>BOND
     1     1    20 1   
     2     1    43 1   
     3     1    44 1   
     4     1    45 1   
     5     2    20 1   
     6     2    46 1   
     7     2    47 1   
     8     2    48 1   
     9     3    21 2   
    10     4    22 1   
    11     4    23 1   
    12     4    49 1   
    13     4    50 1   
    14     5     6 1   
    15     5    23 1   
    16     5    51 1   
    17     5    52 1   
    18     6     7 ar  
    19     6    11 ar  
    20     7     8 ar  
    21     7    28 1   
    22     8     9 ar  
    23     8    53 1   
    24     9    10 ar  
    25     9    54 1   
    26    10    11 ar  
    27    10    55 1   
    28    11    24 1   
    29    12    13 ar  
    30    12    25 ar  
    31    12    76 1   
    32    13    14 ar  
    33    13    75 1   
    34    14    15 ar  
    35    14    56 1   
    36    15    24 ar  
    37    15    57 1   
    38    16    28 1   
    39    16    30 1   
    40    17    30 1   
    41    17    31 1   
    42    17    40 1   
    43    17    58 1   
    44    18    19 1   
    45    18    31 1   
    46    18    32 2   
    47    19    33 1   
    48    19    36 1   
    49    19    59 1   
    50    20    21 1   
    51    21    22 1   
    52    22    42 1   
    53    22    60 1   
    54    24    25 ar  
    55    25    61 1   
    56    26    75 1   
    57    27    75 1   
    58    28    29 2   
    59    30    62 1   
    60    30    63 1   
    61    31    64 1   
    62    33    34 1   
    63    33    65 1   
    64    33    66 1   
    65    34    35 1   
    66    34    67 1   
    67    34    68 1   
    68    35    36 1   
    69    35    69 1   
    70    35    70 1   
    71    36    37 1   
    72    37    38 2   
    73    37    39 1   
    74    39    71 1   
    75    39    72 1   
    76    39    73 1   
    77    40    41 2   
    78    40    42 1   
    79    42    74 1   
@<TRIPOS>SUBSTRUCTURE
     1 9P0         1 TEMP              0 ****  ****    0 ROOT
