@<TRIPOS>MOLECULE
9P1
   45    47     1     0     0
SMALL
bcc


@<TRIPOS>ATOM
      1 C02          4.7290     2.0720    -0.2190 ca         1 9P1       0.682200
      2 C04          5.7440    -0.0330    -0.7610 ca         1 9P1      -0.047000
      3 C05          4.5150    -0.6630    -0.4380 ca         1 9P1      -0.196300
      4 C13         -1.6760    -2.1180     0.7980 c3         1 9P1       0.219100
      5 C03          5.8610     1.3150    -0.6570 ca         1 9P1      -0.295300
      6 C06          4.3130    -2.0540    -0.5180 ca         1 9P1      -0.094000
      7 C21         -2.8220    -1.1830     0.5340 ca         1 9P1      -0.148300
      8 C22         -3.8280    -1.5020    -0.3680 ca         1 9P1      -0.069500
      9 C24         -4.9750     0.6070     0.0120 ca         1 9P1       0.193600
     10 C25         -3.9430     0.9360     0.9140 ca         1 9P1      -0.210000
     11 C26         -2.9020     0.0590     1.1600 ca         1 9P1      -0.069500
     12 C28         -5.9700     2.8080     0.2920 c3         1 9P1       0.212600
     13 C29         -6.9120     1.1900    -1.3290 c3         1 9P1       0.212600
     14 N02          4.8580     3.4130    -0.0640 nv         1 9P1      -0.962500
     15 N01          3.5760     1.5180     0.0750 nb         1 9P1      -0.758000
     16 C10          3.4510     0.1730    -0.0260 ca         1 9P1       0.454600
     17 C07          3.0960    -2.6000    -0.2070 ca         1 9P1      -0.147000
     18 C08          2.0230    -1.7790     0.2030 ca         1 9P1      -0.069300
     19 C09          2.2080    -0.4190     0.2890 ca         1 9P1      -0.167300
     20 N12         -0.4130    -1.5200     0.4020 n7         1 9P1      -0.808200
     21 C23         -4.8810    -0.6390    -0.6330 ca         1 9P1      -0.210000
     22 N27         -6.0250     1.4600    -0.2230 nh         1 9P1      -0.682000
     23 H1           6.5840    -0.6320    -1.0910 ha         1 9P1       0.133000
     24 H2           0.5970    -3.3500    -0.0230 h1         1 9P1       0.035700
     25 H3           0.7450    -2.7380     1.6070 h1         1 9P1       0.035700
     26 H4          -1.6150    -2.3500     1.8670 h1         1 9P1       0.032200
     27 H5          -1.8730    -3.0760     0.2910 h1         1 9P1       0.032200
     28 H6           6.7880     1.8190    -0.9000 ha         1 9P1       0.136000
     29 H7           5.1330    -2.6880    -0.8370 ha         1 9P1       0.128000
     30 H8          -3.7950    -2.4520    -0.8900 ha         1 9P1       0.129000
     31 H9          -3.9460     1.8870     1.4290 ha         1 9P1       0.128500
     32 H10         -2.1270     0.3570     1.8570 ha         1 9P1       0.129000
     33 H11         -6.8920     3.3250     0.0390 h1         1 9P1       0.034533
     34 H12         -5.8860     2.8170     1.3800 h1         1 9P1       0.034533
     35 H13         -5.1350     3.3910    -0.1140 h1         1 9P1       0.034533
     36 H14         -6.3960     1.1710    -2.2960 h1         1 9P1       0.034533
     37 H15         -7.4260     0.2340    -1.2080 h1         1 9P1       0.034533
     38 H16         -7.6770     1.9600    -1.3750 h1         1 9P1       0.034533
     39 H17          5.6200     3.8860    -0.5160 hn         1 9P1       0.423300
     40 H18          4.0170     3.9540     0.0510 hn         1 9P1       0.423300
     41 H19          2.9490    -3.6710    -0.2820 ha         1 9P1       0.128000
     42 H20          1.3930     0.2240     0.5980 ha         1 9P1       0.164000
     43 H21         -0.4750    -1.2310    -0.5670 hn         1 9P1       0.360800
     44 H23         -5.6270    -0.9480    -1.3520 ha         1 9P1       0.128500
     45 C11          0.7070    -2.4210     0.5580 c3         1 9P1       0.205100
@<TRIPOS>BOND
     1     1     5 ar  
     2     1    14 1   
     3     1    15 ar  
     4     2     3 ar  
     5     2     5 ar  
     6     2    23 1   
     7     3     6 ar  
     8     3    16 ar  
     9     4     7 1   
    10     4    20 1   
    11     4    26 1   
    12     4    27 1   
    13     5    28 1   
    14     6    17 ar  
    15     6    29 1   
    16     7     8 ar  
    17     7    11 ar  
    18     8    21 ar  
    19     8    30 1   
    20     9    10 ar  
    21     9    21 ar  
    22     9    22 1   
    23    10    11 ar  
    24    10    31 1   
    25    11    32 1   
    26    12    22 1   
    27    12    33 1   
    28    12    34 1   
    29    12    35 1   
    30    13    22 1   
    31    13    36 1   
    32    13    37 1   
    33    13    38 1   
    34    14    39 1   
    35    14    40 1   
    36    15    16 ar  
    37    16    19 ar  
    38    17    18 ar  
    39    17    41 1   
    40    18    19 ar  
    41    18    45 1   
    42    19    42 1   
    43    20    43 1   
    44    20    45 1   
    45    21    44 1   
    46    24    45 1   
    47    25    45 1   
@<TRIPOS>SUBSTRUCTURE
     1 9P1         1 TEMP              0 ****  ****    0 ROOT
