@<TRIPOS>MOLECULE
9P1
   45    47     1     0     0
SMALL
No Charge or Current Charge


@<TRIPOS>ATOM
      1 C02          5.4370     1.7460     0.2210 ca         1 9P1       0.616900
      2 C04          5.4480     0.0970    -1.5210 ca         1 9P1      -0.029000
      3 C05          4.3100    -0.4550    -0.9050 ca         1 9P1      -0.131000
      4 C13         -1.6600    -1.8890     1.2150 c3         1 9P1       0.219100
      5 C03          6.0240     1.2330    -0.9360 ca         1 9P1      -0.212000
      6 C06          3.6930    -1.5950    -1.4530 ca         1 9P1      -0.076000
      7 C21         -2.8280    -1.0450     0.7310 ca         1 9P1      -0.148300
      8 C22         -3.6050    -1.4650    -0.3640 ca         1 9P1      -0.051500
      9 C24         -5.0130     0.5290    -0.1640 ca         1 9P1       0.332000
     10 C25         -4.2280     0.9420     0.9310 ca         1 9P1      -0.192000
     11 C26         -3.1450     0.1640     1.3760 ca         1 9P1      -0.051500
     12 C28         -6.1360     2.7840    -0.4130 c3         1 9P1       0.212600
     13 C29         -7.2710     0.7050    -1.2960 c3         1 9P1       0.212600
     14 N02          5.8860     2.8250     0.8650 nv         1 9P1      -1.072900
     15 N01          4.3640     1.2490     0.8200 nb         1 9P1      -0.758000
     16 C10          3.7910     0.1500     0.2710 ca         1 9P1       0.324000
     17 C07          2.5580    -2.1450    -0.8370 ca         1 9P1      -0.129000
     18 C08          2.0310    -1.5600     0.3290 ca         1 9P1      -0.069300
     19 C09          2.6520    -0.4170     0.8710 ca         1 9P1      -0.084000
     20 N12         -0.4030    -1.3820     0.6470 n7         1 9P1      -0.863400
     21 C23         -4.6880    -0.6840    -0.8050 ca         1 9P1      -0.192000
     22 N27         -6.1070     1.3160    -0.6110 nh         1 9P1      -0.820400
     23 H1           5.8710    -0.3400    -2.4240 ha         1 9P1       0.115000
     24 H2           0.6900    -3.2020     0.6930 h1         1 9P1       0.035700
     25 H3           0.9510    -2.1480     2.0910 h1         1 9P1       0.035700
     26 H4          -1.6240    -1.8620     2.3130 h1         1 9P1       0.032200
     27 H5          -1.8210    -2.9350     0.9180 h1         1 9P1       0.032200
     28 H6           6.9030     1.6990    -1.3690 ha         1 9P1       0.118000
     29 H7           4.0920    -2.0570    -2.3550 ha         1 9P1       0.110000
     30 H8          -3.3710    -2.3960    -0.8760 ha         1 9P1       0.111000
     31 H9          -4.4570     1.8650     1.4540 ha         1 9P1       0.110500
     32 H10         -2.5510     0.4990     2.2240 ha         1 9P1       0.111000
     33 H11         -6.7820     3.2660    -1.1600 h1         1 9P1       0.034533
     34 H12         -6.5160     3.0310     0.5870 h1         1 9P1       0.034533
     35 H13         -5.1290     3.2090    -0.5240 h1         1 9P1       0.034533
     36 H14         -7.0670     0.5870    -2.3690 h1         1 9P1       0.034533
     37 H15         -7.4980    -0.2800    -0.8670 h1         1 9P1       0.034533
     38 H16         -8.1660     1.3320    -1.1790 h1         1 9P1       0.034533
     39 H17          6.4430     3.4830     0.3310 hn         1 9P1       0.478500
     40 H18          5.2370     3.2200     1.5340 hn         1 9P1       0.478500
     41 H19          2.0870    -3.0260    -1.2680 ha         1 9P1       0.110000
     42 H20          2.2450     0.0400     1.7680 ha         1 9P1       0.146000
     43 H21         -0.4950    -1.3980    -0.3750 hn         1 9P1       0.416000
     44 H23         -5.2650    -1.0250    -1.6590 ha         1 9P1       0.110500
     45 C11          0.8010    -2.1530     1.0020 c3         1 9P1       0.205100
@<TRIPOS>BOND
     1     1     5 ar  
     2     1    14 1   
     3     1    15 ar  
     4     2     3 ar  
     5     2     5 ar  
     6     2    23 1   
     7     3     6 ar  
     8     3    16 ar  
     9     4     7 1   
    10     4    20 1   
    11     4    26 1   
    12     4    27 1   
    13     5    28 1   
    14     6    17 ar  
    15     6    29 1   
    16     7     8 ar  
    17     7    11 ar  
    18     8    21 ar  
    19     8    30 1   
    20     9    10 ar  
    21     9    21 ar  
    22     9    22 1   
    23    10    11 ar  
    24    10    31 1   
    25    11    32 1   
    26    12    22 1   
    27    12    33 1   
    28    12    34 1   
    29    12    35 1   
    30    13    22 1   
    31    13    36 1   
    32    13    37 1   
    33    13    38 1   
    34    14    39 1   
    35    14    40 1   
    36    15    16 ar  
    37    16    19 ar  
    38    17    18 ar  
    39    17    41 1   
    40    18    19 ar  
    41    18    45 1   
    42    19    42 1   
    43    20    43 1   
    44    20    45 1   
    45    21    44 1   
    46    24    45 1   
    47    25    45 1   
@<TRIPOS>SUBSTRUCTURE
     1 9P1         1 TEMP              0 ****  ****    0 ROOT
