@<TRIPOS>MOLECULE
9P2
   78    84     1     0     0
SMALL
bcc


@<TRIPOS>ATOM
      1 C15          1.4280     4.9100    -1.4400 ca         1 9P2      -0.116500
      2 C16          1.7560     4.1700    -2.5460 ca         1 9P2       0.053100
      3 C17          1.4310     2.8240    -2.6440 ca         1 9P2       0.045600
      4 C18          0.7680     2.1590    -1.6460 ca         1 9P2      -0.095000
      5 C20          2.6340     3.3790    -4.4260 c5         1 9P2       0.326200
      6 C01         -2.7190    -1.7760    -0.1220 cc         1 9P2       0.462000
      7 N02         -3.5970    -0.9180     0.3420 nd         1 9P2      -0.665000
      8 C03         -2.9200    -0.0830     1.1760 cd         1 9P2       0.360800
      9 C04         -1.5880    -0.4320     1.2100 cc         1 9P2      -0.198900
     10 N05         -1.4790    -1.5220     0.3780 na         1 9P2      -0.157900
     11 C06         -0.2720    -2.3010     0.1560 c3         1 9P2       0.041300
     12 C07          0.6330    -1.7250    -0.9220 c3         1 9P2      -0.106400
     13 C08          1.7910    -2.6590    -1.2450 c3         1 9P2      -0.072400
     14 C09          2.6820    -2.1060    -2.3470 c3         1 9P2      -0.087100
     15 C10         -0.4360     0.1780     1.9320 c3         1 9P2       0.236100
     16 N11          0.4030     1.0360     1.1040 n3         1 9P2      -0.715600
     17 C13          0.4220     2.8950    -0.4990 ca         1 9P2      -0.084300
     18 C14          0.7530     4.2380    -0.4100 ca         1 9P2      -0.129500
     19 O19          1.8460     2.3500    -3.8450 os         1 9P2      -0.320900
     20 O21          2.3840     4.5640    -3.6830 os         1 9P2      -0.320900
     21 C22          1.6050     1.4260     1.8340 c3         1 9P2       0.206100
     22 C23          2.5890     0.2990     1.9870 ca         1 9P2      -0.084300
     23 C24          3.3350    -0.1110     0.8690 ca         1 9P2      -0.095000
     24 C25          4.2250    -1.1370     1.0450 ca         1 9P2       0.045600
     25 O26          5.0780    -1.6850     0.1440 os         1 9P2      -0.320900
     26 C27          5.6070    -2.8470     0.7650 c5         1 9P2       0.326200
     27 O28          5.3440    -2.7250     2.1570 os         1 9P2      -0.320900
     28 C29          4.3900    -1.7670     2.2710 ca         1 9P2       0.053100
     29 C30          3.6770    -1.3860     3.3780 ca         1 9P2      -0.116500
     30 C31          2.7690    -0.3320     3.2090 ca         1 9P2      -0.129500
     31 C32         -3.6160     1.0220     1.8460 ca         1 9P2      -0.104500
     32 C33         -4.5640     1.7630     1.1380 ca         1 9P2      -0.114000
     33 C34         -5.2490     2.8050     1.7450 ca         1 9P2      -0.134000
     34 C35         -5.0000     3.1260     3.0740 ca         1 9P2      -0.128000
     35 C36         -4.0690     2.3880     3.7910 ca         1 9P2      -0.134000
     36 C37         -3.3880     1.3410     3.1850 ca         1 9P2      -0.114000
     37 C38         -3.0960    -2.8870    -1.0040 ca         1 9P2      -0.122500
     38 C39         -4.3510    -3.4720    -0.8080 ca         1 9P2      -0.105000
     39 C40         -4.7870    -4.5060    -1.6200 ca         1 9P2      -0.135000
     40 C41         -3.9780    -4.9790    -2.6460 ca         1 9P2      -0.118000
     41 C42         -2.7350    -4.4000    -2.8550 ca         1 9P2      -0.135000
     42 C43         -2.2990    -3.3600    -2.0460 ca         1 9P2      -0.105000
     43 H1           1.6790     5.9580    -1.3570 ha         1 9P2       0.152500
     44 H2           0.5140     1.1110    -1.7370 ha         1 9P2       0.160500
     45 H3           3.6960     3.1170    -4.3600 h2         1 9P2       0.064200
     46 H4           2.3420     3.5260    -5.4650 h2         1 9P2       0.064200
     47 H5           0.2690    -2.3660     1.1010 h1         1 9P2       0.061700
     48 H6          -0.5770    -3.3170    -0.0920 h1         1 9P2       0.061700
     49 H7           0.0530    -1.5270    -1.8280 hc         1 9P2       0.063700
     50 H8           1.0110    -0.7590    -0.5820 hc         1 9P2       0.063700
     51 H9           2.3820    -2.8260    -0.3410 hc         1 9P2       0.035700
     52 H10          1.4050    -3.6380    -1.5440 hc         1 9P2       0.035700
     53 H11          2.1220    -1.9810    -3.2760 hc         1 9P2       0.035700
     54 H12          3.0880    -1.1310    -2.0770 hc         1 9P2       0.035700
     55 H13          3.5240    -2.7680    -2.5500 hc         1 9P2       0.035700
     56 H14         -0.8190     0.7280     2.8030 h1         1 9P2       0.048700
     57 H15          0.1940    -0.6140     2.3450 h1         1 9P2       0.048700
     58 H17         -1.2900     1.8830     0.2540 h1         1 9P2       0.050200
     59 H18         -0.5100     2.9320     1.4270 h1         1 9P2       0.050200
     60 H19          0.4880     4.7890     0.4830 ha         1 9P2       0.135000
     61 H20          2.0840     2.2340     1.2780 h1         1 9P2       0.050200
     62 H21          1.3560     1.8360     2.8260 h1         1 9P2       0.050200
     63 H22          3.2120     0.3780    -0.0900 ha         1 9P2       0.160500
     64 H23          5.1090    -3.7400     0.3700 h2         1 9P2       0.064200
     65 H24          6.6820    -2.9010     0.5950 h2         1 9P2       0.064200
     66 H25          3.8080    -1.8690     4.3370 ha         1 9P2       0.152500
     67 H26          2.1880    -0.0030     4.0630 ha         1 9P2       0.135000
     68 H27         -4.7600     1.5220     0.1010 ha         1 9P2       0.136000
     69 H28         -5.9770     3.3700     1.1760 ha         1 9P2       0.129000
     70 H29         -5.5320     3.9400     3.5480 ha         1 9P2       0.129000
     71 H30         -3.8800     2.6160     4.8320 ha         1 9P2       0.129000
     72 H31         -2.6940     0.7520     3.7720 ha         1 9P2       0.136000
     73 H32         -4.9860    -3.1100    -0.0100 ha         1 9P2       0.143000
     74 H33         -5.7610    -4.9460    -1.4480 ha         1 9P2       0.132500
     75 H34         -4.3160    -5.7900    -3.2780 ha         1 9P2       0.131000
     76 H35         -2.1000    -4.7510    -3.6580 ha         1 9P2       0.132500
     77 H36         -1.3400    -2.9110    -2.2630 ha         1 9P2       0.143000
     78 C12         -0.3130     2.2070     0.6210 c3         1 9P2       0.206100
@<TRIPOS>BOND
     1     1     2 ar  
     2     1    18 ar  
     3     1    43 1   
     4     2     3 ar  
     5     2    20 1   
     6     3     4 ar  
     7     3    19 1   
     8     4    17 ar  
     9     4    44 1   
    10     5    19 1   
    11     5    20 1   
    12     5    45 1   
    13     5    46 1   
    14     6     7 2   
    15     6    10 1   
    16     6    37 1   
    17     7     8 1   
    18     8     9 2   
    19     8    31 1   
    20     9    10 1   
    21     9    15 1   
    22    10    11 1   
    23    11    12 1   
    24    11    47 1   
    25    11    48 1   
    26    12    13 1   
    27    12    49 1   
    28    12    50 1   
    29    13    14 1   
    30    13    51 1   
    31    13    52 1   
    32    14    53 1   
    33    14    54 1   
    34    14    55 1   
    35    15    16 1   
    36    15    56 1   
    37    15    57 1   
    38    16    21 1   
    39    16    78 1   
    40    17    18 ar  
    41    17    78 1   
    42    18    60 1   
    43    21    22 1   
    44    21    61 1   
    45    21    62 1   
    46    22    23 ar  
    47    22    30 ar  
    48    23    24 ar  
    49    23    63 1   
    50    24    25 1   
    51    24    28 ar  
    52    25    26 1   
    53    26    27 1   
    54    26    64 1   
    55    26    65 1   
    56    27    28 1   
    57    28    29 ar  
    58    29    30 ar  
    59    29    66 1   
    60    30    67 1   
    61    31    32 ar  
    62    31    36 ar  
    63    32    33 ar  
    64    32    68 1   
    65    33    34 ar  
    66    33    69 1   
    67    34    35 ar  
    68    34    70 1   
    69    35    36 ar  
    70    35    71 1   
    71    36    72 1   
    72    37    38 ar  
    73    37    42 ar  
    74    38    39 ar  
    75    38    73 1   
    76    39    40 ar  
    77    39    74 1   
    78    40    41 ar  
    79    40    75 1   
    80    41    42 ar  
    81    41    76 1   
    82    42    77 1   
    83    58    78 1   
    84    59    78 1   
@<TRIPOS>SUBSTRUCTURE
     1 9P2         1 TEMP              0 ****  ****    0 ROOT
