@<TRIPOS>MOLECULE
9P2
   78    84     1     0     0
SMALL
No Charge or Current Charge


@<TRIPOS>ATOM
      1 C15          1.9130     4.7490    -1.4020 ca         1 9P2      -0.098500
      2 C16          2.0620     4.0100    -2.5820 ca         1 9P2       0.053100
      3 C17          1.4830     2.7820    -2.7370 ca         1 9P2       0.045600
      4 C18          0.7120     2.2000    -1.7240 ca         1 9P2      -0.077000
      5 C20          2.6410     3.2260    -4.5670 c5         1 9P2       0.372600
      6 C01         -2.7860    -1.7240    -0.1890 cc         1 9P2       0.462000
      7 N02         -3.6750    -0.9050     0.3360 nd         1 9P2      -0.665000
      8 C03         -2.9920    -0.0450     1.1700 cd         1 9P2       0.295500
      9 C04         -1.6390    -0.3590     1.1620 cc         1 9P2      -0.184300
     10 N05         -1.5160    -1.4430     0.2940 na         1 9P2      -0.136500
     11 C06         -0.2920    -2.2460     0.0610 c3         1 9P2       0.070600
     12 C07          0.7010    -1.6140    -0.9420 c3         1 9P2      -0.106400
     13 C08          1.8540    -2.5630    -1.3250 c3         1 9P2      -0.072400
     14 C09          2.8320    -1.9400    -2.3400 c3         1 9P2      -0.087100
     15 C10         -0.4780     0.1870     1.9680 c3         1 9P2       0.236100
     16 N11          0.4070     1.1140     1.2160 n3         1 9P2      -0.715600
     17 C13          0.5460     2.9110    -0.5130 ca         1 9P2      -0.084300
     18 C14          1.1470     4.1870    -0.3580 ca         1 9P2      -0.111500
     19 O19          1.7350     2.2400    -3.9550 os         1 9P2      -0.344100
     20 O21          2.7530     4.3990    -3.6830 os         1 9P2      -0.344100
     21 C22          1.6480     1.4600     1.9530 c3         1 9P2       0.206100
     22 C23          2.5930     0.2750     2.1070 ca         1 9P2      -0.084300
     23 C24          3.4450    -0.0800     1.0360 ca         1 9P2      -0.077000
     24 C25          4.2910    -1.1840     1.1970 ca         1 9P2       0.045600
     25 O26          5.1750    -1.6510     0.2780 os         1 9P2      -0.344100
     26 C27          5.6850    -2.8730     0.9190 c5         1 9P2       0.372600
     27 O28          5.2110    -2.9260     2.3110 os         1 9P2      -0.344100
     28 C29          4.3130    -1.9080     2.3550 ca         1 9P2       0.053100
     29 C30          3.4960    -1.5800     3.4440 ca         1 9P2      -0.098500
     30 C31          2.6290    -0.4740     3.3120 ca         1 9P2      -0.111500
     31 C32         -3.7570     1.0230     1.8930 ca         1 9P2      -0.104500
     32 C33         -5.1760     1.0160     1.8390 ca         1 9P2      -0.096000
     33 C34         -5.9420     2.0010     2.4870 ca         1 9P2      -0.116000
     34 C35         -5.3100     3.0280     3.1990 ca         1 9P2      -0.110000
     35 C36         -3.9120     3.0680     3.2540 ca         1 9P2      -0.116000
     36 C37         -3.1450     2.0830     2.6070 ca         1 9P2      -0.096000
     37 C38         -3.1610    -2.8370    -1.0820 ca         1 9P2      -0.122500
     38 C39         -4.3830    -3.5150    -0.8710 ca         1 9P2      -0.087000
     39 C40         -4.7910    -4.5520    -1.7280 ca         1 9P2      -0.117000
     40 C41         -3.9960    -4.9100    -2.8270 ca         1 9P2      -0.100000
     41 C42         -2.7990    -4.2200    -3.0740 ca         1 9P2      -0.117000
     42 C43         -2.3910    -3.1840    -2.2160 ca         1 9P2      -0.087000
     43 H1           2.3770     5.7270    -1.2960 ha         1 9P2       0.134500
     44 H2           0.2570     1.2240    -1.8660 ha         1 9P2       0.142500
     45 H3           3.6320     2.7740    -4.6870 h2         1 9P2       0.064200
     46 H4           2.2470     3.5350    -5.5420 h2         1 9P2       0.064200
     47 H5           0.2200    -2.4040     1.0180 h1         1 9P2       0.061700
     48 H6          -0.5850    -3.2400    -0.2970 h1         1 9P2       0.061700
     49 H7           0.1710    -1.3040    -1.8490 hc         1 9P2       0.063700
     50 H8           1.1240    -0.7040    -0.5080 hc         1 9P2       0.063700
     51 H9           2.4070    -2.8470    -0.4210 hc         1 9P2       0.035700
     52 H10          1.4410    -3.4860    -1.7510 hc         1 9P2       0.035700
     53 H11          2.3160    -1.6970    -3.2770 hc         1 9P2       0.035700
     54 H12          3.2740    -1.0190    -1.9410 hc         1 9P2       0.035700
     55 H13          3.6450    -2.6400    -2.5670 hc         1 9P2       0.035700
     56 H14         -0.8320     0.6370     2.9010 h1         1 9P2       0.048700
     57 H15          0.1100    -0.6760     2.3000 h1         1 9P2       0.048700
     58 H17         -1.2420     2.0090     0.1970 h1         1 9P2       0.050200
     59 H18         -0.4580     3.0530     1.3850 h1         1 9P2       0.050200
     60 H19          1.0230     4.7380     0.5710 ha         1 9P2       0.117000
     61 H20          2.2000     2.2480     1.4250 h1         1 9P2       0.050200
     62 H21          1.4000     1.8650     2.9440 h1         1 9P2       0.050200
     63 H22          3.4380     0.4820     0.1060 ha         1 9P2       0.142500
     64 H23          5.2960    -3.7440     0.3780 h2         1 9P2       0.064200
     65 H24          6.7810    -2.8750     0.8970 h2         1 9P2       0.064200
     66 H25          3.5310    -2.1620     4.3610 ha         1 9P2       0.134500
     67 H26          1.9790    -0.2010     4.1410 ha         1 9P2       0.117000
     68 H27         -5.7070     0.2360     1.2990 ha         1 9P2       0.118000
     69 H28         -7.0280     1.9650     2.4340 ha         1 9P2       0.111000
     70 H29         -5.9010     3.7920     3.7000 ha         1 9P2       0.111000
     71 H30         -3.4150     3.8710     3.7950 ha         1 9P2       0.111000
     72 H31         -2.0740     2.1880     2.6630 ha         1 9P2       0.118000
     73 H32         -5.0160    -3.2480    -0.0270 ha         1 9P2       0.125000
     74 H33         -5.7270    -5.0740    -1.5420 ha         1 9P2       0.114500
     75 H34         -4.3130    -5.7100    -3.4930 ha         1 9P2       0.113000
     76 H35         -2.1920    -4.4800    -3.9380 ha         1 9P2       0.114500
     77 H36         -1.4810    -2.6440    -2.4540 ha         1 9P2       0.125000
     78 C12         -0.2680     2.2920     0.6170 c3         1 9P2       0.206100
@<TRIPOS>BOND
     1     1     2 ar  
     2     1    18 ar  
     3     1    43 1   
     4     2     3 ar  
     5     2    20 1   
     6     3     4 ar  
     7     3    19 1   
     8     4    17 ar  
     9     4    44 1   
    10     5    19 1   
    11     5    20 1   
    12     5    45 1   
    13     5    46 1   
    14     6     7 2   
    15     6    10 1   
    16     6    37 1   
    17     7     8 1   
    18     8     9 2   
    19     8    31 1   
    20     9    10 1   
    21     9    15 1   
    22    10    11 1   
    23    11    12 1   
    24    11    47 1   
    25    11    48 1   
    26    12    13 1   
    27    12    49 1   
    28    12    50 1   
    29    13    14 1   
    30    13    51 1   
    31    13    52 1   
    32    14    53 1   
    33    14    54 1   
    34    14    55 1   
    35    15    16 1   
    36    15    56 1   
    37    15    57 1   
    38    16    21 1   
    39    16    78 1   
    40    17    18 ar  
    41    17    78 1   
    42    18    60 1   
    43    21    22 1   
    44    21    61 1   
    45    21    62 1   
    46    22    23 ar  
    47    22    30 ar  
    48    23    24 ar  
    49    23    63 1   
    50    24    25 1   
    51    24    28 ar  
    52    25    26 1   
    53    26    27 1   
    54    26    64 1   
    55    26    65 1   
    56    27    28 1   
    57    28    29 ar  
    58    29    30 ar  
    59    29    66 1   
    60    30    67 1   
    61    31    32 ar  
    62    31    36 ar  
    63    32    33 ar  
    64    32    68 1   
    65    33    34 ar  
    66    33    69 1   
    67    34    35 ar  
    68    34    70 1   
    69    35    36 ar  
    70    35    71 1   
    71    36    72 1   
    72    37    38 ar  
    73    37    42 ar  
    74    38    39 ar  
    75    38    73 1   
    76    39    40 ar  
    77    39    74 1   
    78    40    41 ar  
    79    40    75 1   
    80    41    42 ar  
    81    41    76 1   
    82    42    77 1   
    83    58    78 1   
    84    59    78 1   
@<TRIPOS>SUBSTRUCTURE
     1 9P2         1 TEMP              0 ****  ****    0 ROOT
