@<TRIPOS>MOLECULE
9P4
   42    44     1     0     0
SMALL
No Charge or Current Charge


@<TRIPOS>ATOM
      1 F23         -6.6780     2.7700    -0.2600 f          1 9P4      -0.170000
      2 C23         -6.3410     1.4630    -0.3640 ca         1 9P4       0.119000
      3 C22         -7.0370     0.6090    -1.2450 ca         1 9P4       0.300900
      4 N21         -6.7390    -0.7080    -1.3890 nb         1 9P4      -0.643000
      5 C26         -5.7230    -1.2050    -0.6410 ca         1 9P4       0.322900
      6 C24         -5.2910     0.9430     0.4070 ca         1 9P4      -0.117000
      7 C25         -4.9730    -0.4240     0.2670 ca         1 9P4      -0.101300
      8 C15         -3.8400    -1.0420     1.0770 c3         1 9P4      -0.030100
      9 C14         -2.4580    -0.7640     0.4490 c3         1 9P4      -0.078400
     10 C13         -1.2980    -1.3860     1.2520 c3         1 9P4       0.160800
     11 N12         -0.0120    -1.0940     0.5960 n7         1 9P4      -0.864400
     12 C11          1.1740    -1.6540     1.2670 c3         1 9P4       0.205100
     13 C08          2.4440    -1.2680     0.5190 ca         1 9P4      -0.067300
     14 C07          2.8660    -2.0180    -0.5940 ca         1 9P4      -0.104000
     15 C06          4.0370    -1.6650    -1.2830 ca         1 9P4      -0.081000
     16 C09          3.2060    -0.1580     0.9350 ca         1 9P4      -0.101000
     17 C10          4.3830     0.2140     0.2600 ca         1 9P4       0.324000
     18 N01          5.0920     1.2870     0.6880 nb         1 9P4      -0.760000
     19 C05          4.7940    -0.5560    -0.8610 ca         1 9P4      -0.126000
     20 C04          5.9680    -0.2000    -1.5500 ca         1 9P4      -0.029000
     21 C03          6.6860     0.9130    -1.0900 ca         1 9P4      -0.210000
     22 C02          6.1960     1.5980     0.0230 ca         1 9P4       0.613900
     23 N02          6.7830     2.6750     0.5490 nv         1 9P4      -1.067900
     24 H1          -7.8560     0.9910    -1.8540 h4         1 9P4       0.037100
     25 H2          -5.5020    -2.2640    -0.7760 h4         1 9P4       0.024100
     26 H3          -4.7400     1.5820     1.0920 ha         1 9P4       0.136000
     27 H4          -3.8560    -0.6480     2.1010 hc         1 9P4       0.051700
     28 H5          -3.9850    -2.1260     1.1630 hc         1 9P4       0.051700
     29 H6          -2.4430    -1.1630    -0.5730 hc         1 9P4       0.051700
     30 H7          -2.3080     0.3200     0.3750 hc         1 9P4       0.051700
     31 H8          -1.3080    -0.9780     2.2720 h1         1 9P4       0.028700
     32 H9          -1.4520    -2.4710     1.3220 h1         1 9P4       0.028700
     33 H10          0.1040    -0.0750     0.5540 hn         1 9P4       0.413000
     34 H12          1.2390    -1.2870     2.3000 h1         1 9P4       0.037700
     35 H13          1.1060    -2.7500     1.3140 h1         1 9P4       0.037700
     36 H14          2.2820    -2.8740    -0.9260 ha         1 9P4       0.126000
     37 H15          4.3530    -2.2530    -2.1420 ha         1 9P4       0.112000
     38 H16          2.8840     0.4250     1.7930 ha         1 9P4       0.125000
     39 H17          6.3120    -0.7670    -2.4130 ha         1 9P4       0.117000
     40 H18          7.5990     1.2320    -1.5840 ha         1 9P4       0.120000
     41 H19          7.3960     3.2100    -0.0560 hn         1 9P4       0.476500
     42 H20          6.2040     3.2040     1.1900 hn         1 9P4       0.476500
@<TRIPOS>BOND
     1     1     2 1   
     2     2     3 ar  
     3     2     6 ar  
     4     3     4 ar  
     5     3    24 1   
     6     4     5 ar  
     7     5     7 ar  
     8     5    25 1   
     9     6     7 ar  
    10     6    26 1   
    11     7     8 1   
    12     8     9 1   
    13     8    27 1   
    14     8    28 1   
    15     9    10 1   
    16     9    29 1   
    17     9    30 1   
    18    10    11 1   
    19    10    31 1   
    20    10    32 1   
    21    11    12 1   
    22    11    33 1   
    23    12    13 1   
    24    12    34 1   
    25    12    35 1   
    26    13    14 ar  
    27    13    16 ar  
    28    14    15 ar  
    29    14    36 1   
    30    15    19 ar  
    31    15    37 1   
    32    16    17 ar  
    33    16    38 1   
    34    17    18 ar  
    35    17    19 ar  
    36    18    22 ar  
    37    19    20 ar  
    38    20    21 ar  
    39    20    39 1   
    40    21    22 ar  
    41    21    40 1   
    42    22    23 1   
    43    23    41 1   
    44    23    42 1   
@<TRIPOS>SUBSTRUCTURE
     1 9P4         1 TEMP              0 ****  ****    0 ROOT
