@<TRIPOS>MOLECULE
9P4
   42    44     1     0     0
SMALL
abcg2


@<TRIPOS>ATOM
      1 F23         -7.0360     2.2690    -0.5310 f          1 9P4      -0.170000
      2 C23         -6.5500     1.0210    -0.5270 ca         1 9P4       0.119000
      3 C22         -7.1260     0.0690    -1.3480 ca         1 9P4       0.300900
      4 N21         -6.6760    -1.1770    -1.3720 nb         1 9P4      -0.643000
      5 C26         -5.6550    -1.5010    -0.5900 ca         1 9P4       0.322900
      6 C24         -5.4890     0.7010     0.2920 ca         1 9P4      -0.117000
      7 C25         -5.0170    -0.6070     0.2670 ca         1 9P4      -0.101300
      8 C15         -3.8420    -1.0310     1.0970 c3         1 9P4      -0.030100
      9 C14         -2.5150    -0.6050     0.4690 c3         1 9P4      -0.078400
     10 C13         -1.3190    -1.0660     1.2890 c3         1 9P4       0.160800
     11 N12         -0.0770    -0.7100     0.6320 n7         1 9P4      -0.864400
     12 C11          1.1020    -1.1420     1.3580 c3         1 9P4       0.205100
     13 C08          2.3480    -0.8680     0.5600 ca         1 9P4      -0.067300
     14 C07          2.4720    -1.4120    -0.7380 ca         1 9P4      -0.104000
     15 C06          3.5970    -1.1790    -1.4810 ca         1 9P4      -0.081000
     16 C09          3.3600    -0.0910     1.0690 ca         1 9P4      -0.101000
     17 C10          4.5320     0.1710     0.3240 ca         1 9P4       0.324000
     18 N01          5.4950     0.9490     0.8730 nb         1 9P4      -0.760000
     19 C05          4.6440    -0.3850    -0.9700 ca         1 9P4      -0.126000
     20 C04          5.8280    -0.0980    -1.6950 ca         1 9P4      -0.029000
     21 C03          6.7910     0.6800    -1.1380 ca         1 9P4      -0.210000
     22 C02          6.5820     1.1950     0.1790 ca         1 9P4       0.613900
     23 N02          7.5610     1.9360     0.7590 nv         1 9P4      -1.067900
     24 H1          -7.9630     0.3220    -1.9900 h4         1 9P4       0.037100
     25 H2          -5.3180    -2.5310    -0.6360 h4         1 9P4       0.024100
     26 H3          -5.0410     1.4480     0.9360 ha         1 9P4       0.136000
     27 H4          -3.9300    -0.6090     2.1010 hc         1 9P4       0.051700
     28 H5          -3.8570    -2.1180     1.2130 hc         1 9P4       0.051700
     29 H6          -2.4360    -1.0140    -0.5410 hc         1 9P4       0.051700
     30 H7          -2.4920     0.4850     0.3690 hc         1 9P4       0.051700
     31 H8          -1.3980    -0.6610     2.3110 h1         1 9P4       0.028700
     32 H9          -1.3500    -2.1560     1.3890 h1         1 9P4       0.028700
     33 H10         -0.0380     0.2960     0.5160 hn         1 9P4       0.413000
     34 H12          1.1940    -0.6840     2.3540 h1         1 9P4       0.037700
     35 H13          1.0140    -2.2200     1.5240 h1         1 9P4       0.037700
     36 H14          1.6680    -2.0150    -1.1400 ha         1 9P4       0.126000
     37 H15          3.6960    -1.6020    -2.4740 ha         1 9P4       0.112000
     38 H16          3.2720     0.3410     2.0600 ha         1 9P4       0.125000
     39 H17          5.9580    -0.5000    -2.6920 ha         1 9P4       0.117000
     40 H18          7.7040     0.9120    -1.6720 ha         1 9P4       0.120000
     41 H19          8.2550     2.3650     0.1710 hn         1 9P4       0.476500
     42 H20          7.3190     2.4570     1.5850 hn         1 9P4       0.476500
@<TRIPOS>BOND
     1     1     2 1   
     2     2     3 ar  
     3     2     6 ar  
     4     3     4 ar  
     5     3    24 1   
     6     4     5 ar  
     7     5     7 ar  
     8     5    25 1   
     9     6     7 ar  
    10     6    26 1   
    11     7     8 1   
    12     8     9 1   
    13     8    27 1   
    14     8    28 1   
    15     9    10 1   
    16     9    29 1   
    17     9    30 1   
    18    10    11 1   
    19    10    31 1   
    20    10    32 1   
    21    11    12 1   
    22    11    33 1   
    23    12    13 1   
    24    12    34 1   
    25    12    35 1   
    26    13    14 ar  
    27    13    16 ar  
    28    14    15 ar  
    29    14    36 1   
    30    15    19 ar  
    31    15    37 1   
    32    16    17 ar  
    33    16    38 1   
    34    17    18 ar  
    35    17    19 ar  
    36    18    22 ar  
    37    19    20 ar  
    38    20    21 ar  
    39    20    39 1   
    40    21    22 ar  
    41    21    40 1   
    42    22    23 1   
    43    23    41 1   
    44    23    42 1   
@<TRIPOS>SUBSTRUCTURE
     1 9P4         1 TEMP              0 ****  ****    0 ROOT
