@<TRIPOS>MOLECULE
9P5
   56    58     1     0     0
SMALL
bcc


@<TRIPOS>ATOM
      1 C22         -6.6630    -2.1720    84.0210 c5         1 9P5       0.097400
      2 C10          0.2980    -3.1260    82.5170 ca         1 9P5      -0.003600
      3 C11          2.6970    -3.2910    81.6290 c3         1 9P5       0.196400
      4 C21         -7.1660    -3.4960    83.4320 c5         1 9P5       0.097400
      5 C12          3.8180    -4.0750    82.3260 c6         1 9P5      -0.080700
      6 C13          5.0450    -4.2510    81.3840 c6         1 9P5       0.156600
      7 C14          5.9100    -5.4410    81.8000 c6         1 9P5      -0.097400
      8 C15          5.8660    -5.6560    83.3040 c6         1 9P5      -0.070400
      9 C16          4.4480    -6.0380    83.7440 c6         1 9P5      -0.097400
     10 C17          3.3670    -5.4420    82.8310 c6         1 9P5       0.156600
     11 C1          -4.9200    -3.2270    83.1230 c5         1 9P5       0.333900
     12 C2          -3.9400    -3.2230    81.9700 c3         1 9P5      -0.081400
     13 C3          -2.7170    -2.3630    82.1930 c3         1 9P5       0.147400
     14 C5          -0.6620    -2.5490    83.3520 ca         1 9P5       0.204100
     15 C6          -0.2400    -1.6320    84.3110 ca         1 9P5      -0.271500
     16 C7           1.0970    -1.2740    84.4070 ca         1 9P5      -0.027000
     17 C8           2.0120    -1.8160    83.5280 ca         1 9P5      -0.131000
     18 C9           1.6400    -2.7670    82.5810 ca         1 9P5      -0.031300
     19 O4          -1.9540    -2.9190    83.2790 os         1 9P5      -0.361900
     20 O18          2.1360    -5.3220    83.5090 oh         1 9P5      -0.600800
     21 O19          3.3060    -2.1850    80.9840 oh         1 9P5      -0.611800
     22 O20         -6.0170    -4.0570    82.8190 os         1 9P5      -0.416100
     23 O23         -5.4550    -1.9520    83.3230 os         1 9P5      -0.416100
     24 O25          4.6860    -4.4540    80.0340 oh         1 9P5      -0.600800
     25 S24         -1.3950    -0.9110    85.4610 sy         1 9P5       1.094300
     26 H1          -7.3370    -1.3350    83.8450 h1         1 9P5       0.055700
     27 H2          -6.4870    -2.2590    85.0990 h1         1 9P5       0.055700
     28 H3           2.2260    -3.9480    80.8910 h1         1 9P5       0.063700
     29 H4          -7.9400    -3.3460    82.6760 h1         1 9P5       0.055700
     30 H5          -7.5650    -4.1570    84.2070 h1         1 9P5       0.055700
     31 H6           4.1620    -3.4890    83.1880 hc         1 9P5       0.068700
     32 H7           5.6520    -3.3430    81.4810 h1         1 9P5       0.042200
     33 H8           5.5470    -6.3430    81.2960 hc         1 9P5       0.051700
     34 H9           6.9340    -5.2850    81.4540 hc         1 9P5       0.051700
     35 H10          6.5770    -6.4280    83.6020 hc         1 9P5       0.044200
     36 H11          6.1850    -4.7400    83.8110 hc         1 9P5       0.044200
     37 H12          4.2670    -5.6850    84.7620 hc         1 9P5       0.051700
     38 H13          4.3400    -7.1260    83.7630 hc         1 9P5       0.051700
     39 H14          3.2390    -6.0940    81.9530 h1         1 9P5       0.042200
     40 H15         -4.4390    -3.5840    84.0500 h2         1 9P5       0.042700
     41 H16         -4.4510    -2.8540    81.0770 hc         1 9P5       0.072200
     42 H17         -3.6280    -4.2480    81.7610 hc         1 9P5       0.072200
     43 H18         -2.1200    -2.3460    81.2790 h1         1 9P5       0.061700
     44 H19         -2.9830    -1.3330    82.4360 h1         1 9P5       0.061700
     45 H20          1.4220    -0.5670    85.1570 ha         1 9P5       0.169000
     46 H21          3.0470    -1.5080    83.5940 ha         1 9P5       0.150000
     47 H22         -1.1270    -2.7820    86.8880 h1         1 9P5       0.105367
     48 H23         -2.6360    -1.8810    87.1910 h1         1 9P5       0.105367
     49 H24         -2.5260    -2.9820    85.7920 h1         1 9P5       0.105367
     50 H25          1.8060    -6.2080    83.6900 ho         1 9P5       0.411500
     51 H26          2.6360    -1.7170    80.4720 ho         1 9P5       0.415000
     52 H27          4.3390    -3.6170    79.7050 ho         1 9P5       0.411500
     53 CL          -0.2450    -4.3560    81.4310 cl         1 9P5      -0.094400
     54 C29         -1.9780    -2.2890    86.4240 c3         1 9P5      -0.216300
     55 O26         -0.6180    -0.0430    86.3430 o          1 9P5      -0.595300
     56 O27         -2.5190    -0.3190    84.7420 o          1 9P5      -0.595300
@<TRIPOS>BOND
     1     1     4 1   
     2     1    23 1   
     3     1    26 1   
     4     1    27 1   
     5     2    14 ar  
     6     2    18 ar  
     7     2    53 1   
     8     3     5 1   
     9     3    18 1   
    10     3    21 1   
    11     3    28 1   
    12     4    22 1   
    13     4    29 1   
    14     4    30 1   
    15     5     6 1   
    16     5    10 1   
    17     5    31 1   
    18     6     7 1   
    19     6    24 1   
    20     6    32 1   
    21     7     8 1   
    22     7    33 1   
    23     7    34 1   
    24     8     9 1   
    25     8    35 1   
    26     8    36 1   
    27     9    10 1   
    28     9    37 1   
    29     9    38 1   
    30    10    20 1   
    31    10    39 1   
    32    11    12 1   
    33    11    22 1   
    34    11    23 1   
    35    11    40 1   
    36    12    13 1   
    37    12    41 1   
    38    12    42 1   
    39    13    19 1   
    40    13    43 1   
    41    13    44 1   
    42    14    15 ar  
    43    14    19 1   
    44    15    16 ar  
    45    15    25 1   
    46    16    17 ar  
    47    16    45 1   
    48    17    18 ar  
    49    17    46 1   
    50    20    50 1   
    51    21    51 1   
    52    24    52 1   
    53    25    54 1   
    54    25    55 2   
    55    25    56 2   
    56    47    54 1   
    57    48    54 1   
    58    49    54 1   
@<TRIPOS>SUBSTRUCTURE
     1 9P5         1 TEMP              0 ****  ****    0 ROOT
