@<TRIPOS>MOLECULE
9P5
   56    58     1     0     0
SMALL
No Charge or Current Charge


@<TRIPOS>ATOM
      1 C22         -6.7190    -1.5920    83.9160 c5         1 9P5       0.120600
      2 C10          0.2920    -3.1840    82.3160 ca         1 9P5       0.088000
      3 C11          2.7790    -3.2590    81.5770 c3         1 9P5       0.219600
      4 C21         -7.1290    -3.0900    84.0760 c5         1 9P5       0.120600
      5 C12          3.9250    -4.0550    82.3170 c6         1 9P5      -0.080700
      6 C13          5.2720    -4.1080    81.5000 c6         1 9P5       0.179800
      7 C14          6.1980    -5.2960    81.8880 c6         1 9P5      -0.097400
      8 C15          6.0390    -5.6730    83.3740 c6         1 9P5      -0.070400
      9 C16          4.5920    -6.1480    83.6750 c6         1 9P5      -0.097400
     10 C17          3.5110    -5.4970    82.7570 c6         1 9P5       0.179800
     11 C1          -5.0530    -2.9430    83.1480 c5         1 9P5       0.380300
     12 C2          -4.1680    -3.3180    81.9490 c3         1 9P5      -0.081400
     13 C3          -2.8140    -2.5890    81.9320 c3         1 9P5       0.170600
     14 C5          -0.7200    -2.6940    83.1830 ca         1 9P5       0.204100
     15 C6          -0.3890    -1.8280    84.2460 ca         1 9P5      -0.271500
     16 C7           0.9470    -1.4140    84.4090 ca         1 9P5      -0.009000
     17 C8           1.9420    -1.8700    83.5320 ca         1 9P5      -0.113000
     18 C9           1.6390    -2.7700    82.4900 ca         1 9P5      -0.031300
     19 O4          -2.0260    -3.1060    83.0220 os         1 9P5      -0.385100
     20 O18          2.2620    -5.5090    83.4530 oh         1 9P5      -0.663000
     21 O19          3.3030    -2.1170    80.8770 oh         1 9P5      -0.674000
     22 O20         -6.2110    -3.7850    83.2030 os         1 9P5      -0.462500
     23 O23         -5.6310    -1.6440    82.9670 os         1 9P5      -0.462500
     24 O25          5.0280    -4.1500    80.0920 oh         1 9P5      -0.663000
     25 S24         -1.6390    -1.2500    85.4130 sy         1 9P5       1.063500
     26 H1          -7.5290    -0.9650    83.5210 h1         1 9P5       0.055700
     27 H2          -6.3600    -1.1670    84.8630 h1         1 9P5       0.055700
     28 H3           2.3780    -3.9550    80.8300 h1         1 9P5       0.063700
     29 H4          -8.1630    -3.2860    83.7630 h1         1 9P5       0.055700
     30 H5          -6.9920    -3.4380    85.1090 h1         1 9P5       0.055700
     31 H6           4.1410    -3.4900    83.2330 hc         1 9P5       0.068700
     32 H7           5.8150    -3.1790    81.7340 h1         1 9P5       0.042200
     33 H8           5.9700    -6.1760    81.2710 hc         1 9P5       0.051700
     34 H9           7.2430    -5.0340    81.6740 hc         1 9P5       0.051700
     35 H10          6.7560    -6.4600    83.6480 hc         1 9P5       0.044200
     36 H11          6.2830    -4.8020    83.9990 hc         1 9P5       0.044200
     37 H12          4.3730    -5.9380    84.7320 hc         1 9P5       0.051700
     38 H13          4.5340    -7.2400    83.5660 hc         1 9P5       0.051700
     39 H14          3.4240    -6.1050    81.8430 h1         1 9P5       0.042200
     40 H15         -4.4970    -2.9970    84.0930 h2         1 9P5       0.042700
     41 H16         -4.7010    -3.0910    81.0190 hc         1 9P5       0.072200
     42 H17         -3.9850    -4.3980    81.9470 hc         1 9P5       0.072200
     43 H18         -2.3250    -2.7680    80.9670 h1         1 9P5       0.061700
     44 H19         -2.9680    -1.5070    82.0340 h1         1 9P5       0.061700
     45 H20          1.2290    -0.7350    85.2130 ha         1 9P5       0.151000
     46 H21          2.9630    -1.5250    83.6740 ha         1 9P5       0.132000
     47 H22         -1.2860    -3.1830    86.7440 h1         1 9P5       0.105367
     48 H23         -2.9160    -2.4620    87.0030 h1         1 9P5       0.105367
     49 H24         -2.5850    -3.4310    85.5230 h1         1 9P5       0.105367
     50 H25          2.0550    -6.4490    83.6460 ho         1 9P5       0.450500
     51 H26          2.5330    -1.5570    80.6300 ho         1 9P5       0.454000
     52 H27          4.4520    -3.3630    79.9350 ho         1 9P5       0.450500
     53 Cl          -0.1350    -4.3530    81.0490 cl         1 9P5      -0.186000
     54 C29         -2.1630    -2.7410    86.2600 c3         1 9P5      -0.327100
     55 O26         -0.9910    -0.3980    86.4190 o          1 9P5      -0.524500
     56 O27         -2.8060    -0.7670    84.6660 o          1 9P5      -0.524500
@<TRIPOS>BOND
     1     1     4 1   
     2     1    23 1   
     3     1    26 1   
     4     1    27 1   
     5     2    14 ar  
     6     2    18 ar  
     7     2    53 1   
     8     3     5 1   
     9     3    18 1   
    10     3    21 1   
    11     3    28 1   
    12     4    22 1   
    13     4    29 1   
    14     4    30 1   
    15     5     6 1   
    16     5    10 1   
    17     5    31 1   
    18     6     7 1   
    19     6    24 1   
    20     6    32 1   
    21     7     8 1   
    22     7    33 1   
    23     7    34 1   
    24     8     9 1   
    25     8    35 1   
    26     8    36 1   
    27     9    10 1   
    28     9    37 1   
    29     9    38 1   
    30    10    20 1   
    31    10    39 1   
    32    11    12 1   
    33    11    22 1   
    34    11    23 1   
    35    11    40 1   
    36    12    13 1   
    37    12    41 1   
    38    12    42 1   
    39    13    19 1   
    40    13    43 1   
    41    13    44 1   
    42    14    15 ar  
    43    14    19 1   
    44    15    16 ar  
    45    15    25 1   
    46    16    17 ar  
    47    16    45 1   
    48    17    18 ar  
    49    17    46 1   
    50    20    50 1   
    51    21    51 1   
    52    24    52 1   
    53    25    54 1   
    54    25    55 2   
    55    25    56 2   
    56    47    54 1   
    57    48    54 1   
    58    49    54 1   
@<TRIPOS>SUBSTRUCTURE
     1 9P5         1 TEMP              0 ****  ****    0 ROOT
