@<TRIPOS>MOLECULE
9P6
   65    68     1     0     0
SMALL
No Charge or Current Charge


@<TRIPOS>ATOM
      1 C3          -0.9510    -2.2620    -0.6020 cc         1 9P6       0.286900
      2 C4          -1.3990    -0.9680    -0.3480 cc         1 9P6      -0.259500
      3 C5          -2.7050    -1.0610     0.0690 cd         1 9P6      -0.069000
      4 C6          -0.5480     0.1900    -0.4570 cc         1 9P6       0.553900
      5 N1          -2.9970    -2.4520    -0.0460 na         1 9P6       0.145800
      6 N2          -1.8650    -3.1840    -0.4210 nd         1 9P6      -0.529800
      7 C8           1.3160     1.3450    -0.8650 cd         1 9P6       0.311300
      8 C9           0.5410     2.3650    -0.3770 cc         1 9P6      -0.275000
      9 C11         -4.3230    -3.1680     0.1060 c3         1 9P6       0.122000
     10 C12         -5.5000    -2.3700    -0.5250 c3         1 9P6      -0.099767
     11 C13         -4.3010    -4.5530    -0.6170 c3         1 9P6      -0.099767
     12 C14         -3.6710     0.0390     0.2260 ca         1 9P6      -0.085000
     13 C15         -3.9150     0.9200    -0.8460 ca         1 9P6      -0.046500
     14 O25          3.9440     2.0760     0.6480 o          1 9P6      -0.587100
     15 C23          3.7040     1.2310    -0.2020 c          1 9P6       0.605100
     16 N24          4.2900    -0.0150    -0.1940 ns         1 9P6      -0.513900
     17 C26          5.2850    -0.4660     0.7820 c3         1 9P6       0.110000
     18 C27          6.7080     0.1140     0.5290 c6         1 9P6      -0.078700
     19 C32          7.7090    -0.3470     1.6230 c6         1 9P6      -0.110400
     20 C31          9.1330     0.1820     1.3250 c6         1 9P6       0.155100
     21 O30          9.5460    -0.2340     0.0060 os         1 9P6      -0.448000
     22 C29          8.7080     0.2730    -1.0540 c6         1 9P6       0.155100
     23 C28          7.2610    -0.2490    -0.8800 c6         1 9P6      -0.110400
     24 C22          2.7270     1.4760    -1.3410 c3         1 9P6      -0.181700
     25 N7           0.7000     0.1080    -0.9050 nd         1 9P6      -0.649000
     26 S10         -1.0330     1.7890     0.0750 ss         1 9P6      -0.024400
     27 C33         -4.6140    -3.4390     1.6050 c3         1 9P6      -0.099767
     28 C19         -4.3580     0.2280     1.4390 ca         1 9P6      -0.046500
     29 C18         -5.2840     1.2760     1.5740 ca         1 9P6      -0.179500
     30 C17         -5.5350     2.1470     0.5030 ca         1 9P6       0.155100
     31 O20         -6.4560     3.1570     0.6950 os         1 9P6      -0.338100
     32 C21         -6.7810     4.1040    -0.3380 c3         1 9P6       0.147900
     33 C16         -4.8440     1.9670    -0.7140 ca         1 9P6      -0.179500
     34 H1           0.0390    -2.5690    -0.9170 h4         1 9P6       0.054100
     35 H2           0.7970     3.4080    -0.2490 h4         1 9P6       0.155000
     36 H3          -5.2420    -2.0270    -1.5340 hc         1 9P6       0.049256
     37 H4          -6.4010    -2.9910    -0.6020 hc         1 9P6       0.049256
     38 H5          -5.7800    -1.5010     0.0760 hc         1 9P6       0.049256
     39 H6          -3.5520    -5.2240    -0.1800 hc         1 9P6       0.049256
     40 H7          -5.2710    -5.0580    -0.5370 hc         1 9P6       0.049256
     41 H8          -4.0750    -4.4340    -1.6840 hc         1 9P6       0.049256
     42 H9          -3.3940     0.7810    -1.7910 ha         1 9P6       0.124000
     43 H10          4.0080    -0.6540    -0.9280 hn         1 9P6       0.308500
     44 H11          4.9520    -0.1770     1.7880 h1         1 9P6       0.053200
     45 H12          5.3340    -1.5630     0.7470 h1         1 9P6       0.053200
     46 H13          6.6160     1.2080     0.5920 hc         1 9P6       0.044700
     47 H14          7.3840     0.0080     2.6100 hc         1 9P6       0.053700
     48 H15          7.7340    -1.4440     1.6750 hc         1 9P6       0.053700
     49 H16          9.1540     1.2800     1.3840 h1         1 9P6       0.043200
     50 H17          9.8440    -0.2140     2.0650 h1         1 9P6       0.043200
     51 H18          8.7220     1.3730    -1.0350 h1         1 9P6       0.043200
     52 H19          9.1130    -0.0580    -2.0210 h1         1 9P6       0.043200
     53 H20          7.2470    -1.3380    -1.0230 hc         1 9P6       0.053700
     54 H21          6.6240     0.1800    -1.6660 hc         1 9P6       0.053700
     55 H22          2.9000     0.7510    -2.1440 hc         1 9P6       0.065200
     56 H23          2.8810     2.4900    -1.7240 hc         1 9P6       0.065200
     57 H24         -4.7370    -2.5100     2.1670 hc         1 9P6       0.049256
     58 H25         -5.5360    -4.0200     1.7260 hc         1 9P6       0.049256
     59 H26         -3.7940    -4.0050     2.0630 hc         1 9P6       0.049256
     60 H27         -4.1500    -0.4140     2.2910 ha         1 9P6       0.124000
     61 H28         -5.8060     1.4180     2.5170 ha         1 9P6       0.126000
     62 H29         -7.5320     4.8170     0.0230 h1         1 9P6       0.042700
     63 H30         -5.8920     4.6710    -0.6420 h1         1 9P6       0.042700
     64 H31         -7.1930     3.5940    -1.2190 h1         1 9P6       0.042700
     65 H32         -5.0120     2.6230    -1.5620 ha         1 9P6       0.126000
@<TRIPOS>BOND
     1     1     2 1   
     2     1     6 2   
     3     1    34 1   
     4     2     3 2   
     5     2     4 1   
     6     3     5 1   
     7     3    12 1   
     8     4    25 2   
     9     4    26 1   
    10     5     6 1   
    11     5     9 1   
    12     7     8 2   
    13     7    24 1   
    14     7    25 1   
    15     8    26 1   
    16     8    35 1   
    17     9    10 1   
    18     9    11 1   
    19     9    27 1   
    20    10    36 1   
    21    10    37 1   
    22    10    38 1   
    23    11    39 1   
    24    11    40 1   
    25    11    41 1   
    26    12    13 ar  
    27    12    28 ar  
    28    13    33 ar  
    29    13    42 1   
    30    14    15 2   
    31    15    16 1   
    32    15    24 1   
    33    16    17 1   
    34    16    43 1   
    35    17    18 1   
    36    17    44 1   
    37    17    45 1   
    38    18    19 1   
    39    18    23 1   
    40    18    46 1   
    41    19    20 1   
    42    19    47 1   
    43    19    48 1   
    44    20    21 1   
    45    20    49 1   
    46    20    50 1   
    47    21    22 1   
    48    22    23 1   
    49    22    51 1   
    50    22    52 1   
    51    23    53 1   
    52    23    54 1   
    53    24    55 1   
    54    24    56 1   
    55    27    57 1   
    56    27    58 1   
    57    27    59 1   
    58    28    29 ar  
    59    28    60 1   
    60    29    30 ar  
    61    29    61 1   
    62    30    31 1   
    63    30    33 ar  
    64    31    32 1   
    65    32    62 1   
    66    32    63 1   
    67    32    64 1   
    68    33    65 1   
@<TRIPOS>SUBSTRUCTURE
     1 9P6         1 TEMP              0 ****  ****    0 ROOT
