@<TRIPOS>MOLECULE
9P6
   65    68     1     0     0
SMALL
bcc


@<TRIPOS>ATOM
      1 C3          -0.8750    -2.1420    -0.5570 cc         1 9P6       0.352200
      2 C4          -1.4010    -0.8550    -0.3550 cc         1 9P6      -0.324800
      3 C5          -2.7590    -1.0610    -0.1600 cd         1 9P6      -0.018300
      4 C6          -0.6520     0.3800    -0.3550 cc         1 9P6       0.553900
      5 N1          -2.9580    -2.3970    -0.2520 na         1 9P6       0.124400
      6 N2          -1.8210    -3.0490    -0.4930 nd         1 9P6      -0.529800
      7 C8           1.1140     1.6980    -0.5000 cd         1 9P6       0.376600
      8 C9           0.1810     2.6530    -0.2540 cc         1 9P6      -0.213400
      9 C11         -4.2240    -3.1650    -0.1380 c3         1 9P6       0.092700
     10 C12         -5.1900    -2.7280    -1.2390 c3         1 9P6      -0.099767
     11 C13         -3.9190    -4.6510    -0.3090 c3         1 9P6      -0.099767
     12 C14         -3.7650    -0.0180     0.0930 ca         1 9P6      -0.085000
     13 C15         -4.3850     0.6390    -0.9630 ca         1 9P6      -0.064500
     14 O25          2.9390     1.0840     1.5210 o          1 9P6      -0.587100
     15 C23          3.4020     1.3210     0.4160 c          1 9P6       0.672100
     16 N24          4.6820     1.0780     0.0950 ns         1 9P6      -0.580900
     17 C26          5.6460     0.5830     1.0560 c3         1 9P6       0.110000
     18 C27          6.9920     0.3080     0.4020 c6         1 9P6      -0.078700
     19 C32          8.0090    -0.1220     1.4580 c6         1 9P6      -0.110400
     20 C31          9.3410    -0.4730     0.8150 c6         1 9P6       0.131900
     21 O30          9.2040    -1.4700    -0.1740 os         1 9P6      -0.401600
     22 C29          8.3240    -1.0780    -1.2050 c6         1 9P6       0.131900
     23 C28          6.9290    -0.7650    -0.6850 c6         1 9P6      -0.110400
     24 C22          2.5710     1.9360    -0.7000 c3         1 9P6      -0.181700
     25 N7           0.6300     0.4230    -0.5590 nd         1 9P6      -0.649000
     26 S10         -1.3690     1.9390    -0.0830 ss         1 9P6      -0.169300
     27 C33         -4.8420    -2.9460     1.2430 c3         1 9P6      -0.099767
     28 C19         -4.0280     0.4190     1.3930 ca         1 9P6      -0.064500
     29 C18         -4.9010     1.4620     1.6280 ca         1 9P6      -0.197500
     30 C17         -5.5310     2.1060     0.5590 ca         1 9P6       0.155100
     31 O20         -6.3650     3.1080     0.8770 os         1 9P6      -0.314900
     32 C21         -7.0360     3.7880    -0.1670 c3         1 9P6       0.124700
     33 C16         -5.2650     1.6880    -0.7430 ca         1 9P6      -0.197500
     34 H1           0.1500    -2.4230    -0.7450 h4         1 9P6       0.054100
     35 H2           0.3230     3.7180    -0.1650 h4         1 9P6       0.173000
     36 H3          -4.7230    -2.7980    -2.2230 hc         1 9P6       0.049256
     37 H4          -6.0620    -3.3850    -1.2360 hc         1 9P6       0.049256
     38 H5          -5.5480    -1.7100    -1.0970 hc         1 9P6       0.049256
     39 H6          -3.2350    -5.0240     0.4510 hc         1 9P6       0.049256
     40 H7          -4.8580    -5.1960    -0.2100 hc         1 9P6       0.049256
     41 H8          -3.5020    -4.8760    -1.2890 hc         1 9P6       0.049256
     42 H9          -4.1760     0.3340    -1.9800 ha         1 9P6       0.142000
     43 H10          5.0160     1.3690    -0.8100 hn         1 9P6       0.308500
     44 H11          5.7780     1.3070     1.8660 h1         1 9P6       0.053200
     45 H12          5.2660    -0.3370     1.5090 h1         1 9P6       0.053200
     46 H13          7.3490     1.2420    -0.0530 hc         1 9P6       0.044700
     47 H14          8.1640     0.6720     2.1930 hc         1 9P6       0.053700
     48 H15          7.6260    -0.9920     2.0010 hc         1 9P6       0.053700
     49 H16          9.7890     0.4340     0.3830 h1         1 9P6       0.043200
     50 H17         10.0380    -0.8580     1.5610 h1         1 9P6       0.043200
     51 H18          8.7220    -0.1970    -1.7300 h1         1 9P6       0.043200
     52 H19          8.2900    -1.8980    -1.9240 h1         1 9P6       0.043200
     53 H20          6.4730    -1.6740    -0.2770 hc         1 9P6       0.053700
     54 H21          6.3090    -0.4500    -1.5280 hc         1 9P6       0.053700
     55 H22          2.8890     1.5390    -1.6670 hc         1 9P6       0.065200
     56 H23          2.7740     3.0100    -0.7240 hc         1 9P6       0.065200
     57 H24         -5.2050    -1.9300     1.3800 hc         1 9P6       0.049256
     58 H25         -5.6930    -3.6180     1.3620 hc         1 9P6       0.049256
     59 H26         -4.1240    -3.1700     2.0330 hc         1 9P6       0.049256
     60 H27         -3.5390    -0.0610     2.2310 ha         1 9P6       0.142000
     61 H28         -5.0980     1.7900     2.6400 ha         1 9P6       0.144000
     62 H29         -7.6640     4.5380     0.3070 h1         1 9P6       0.042700
     63 H30         -6.3370     4.2890    -0.8420 h1         1 9P6       0.042700
     64 H31         -7.6690     3.1150    -0.7490 h1         1 9P6       0.042700
     65 H32         -5.7260     2.1680    -1.5960 ha         1 9P6       0.144000
@<TRIPOS>BOND
     1     1     2 1   
     2     1     6 2   
     3     1    34 1   
     4     2     3 2   
     5     2     4 1   
     6     3     5 1   
     7     3    12 1   
     8     4    25 2   
     9     4    26 1   
    10     5     6 1   
    11     5     9 1   
    12     7     8 2   
    13     7    24 1   
    14     7    25 1   
    15     8    26 1   
    16     8    35 1   
    17     9    10 1   
    18     9    11 1   
    19     9    27 1   
    20    10    36 1   
    21    10    37 1   
    22    10    38 1   
    23    11    39 1   
    24    11    40 1   
    25    11    41 1   
    26    12    13 ar  
    27    12    28 ar  
    28    13    33 ar  
    29    13    42 1   
    30    14    15 2   
    31    15    16 1   
    32    15    24 1   
    33    16    17 1   
    34    16    43 1   
    35    17    18 1   
    36    17    44 1   
    37    17    45 1   
    38    18    19 1   
    39    18    23 1   
    40    18    46 1   
    41    19    20 1   
    42    19    47 1   
    43    19    48 1   
    44    20    21 1   
    45    20    49 1   
    46    20    50 1   
    47    21    22 1   
    48    22    23 1   
    49    22    51 1   
    50    22    52 1   
    51    23    53 1   
    52    23    54 1   
    53    24    55 1   
    54    24    56 1   
    55    27    57 1   
    56    27    58 1   
    57    27    59 1   
    58    28    29 ar  
    59    28    60 1   
    60    29    30 ar  
    61    29    61 1   
    62    30    31 1   
    63    30    33 ar  
    64    31    32 1   
    65    32    62 1   
    66    32    63 1   
    67    32    64 1   
    68    33    65 1   
@<TRIPOS>SUBSTRUCTURE
     1 9P6         1 TEMP              0 ****  ****    0 ROOT
