@<TRIPOS>MOLECULE
9P7
   44    46     1     0     0
SMALL
abcg2


@<TRIPOS>ATOM
      1 C10         -4.6770    -0.3170     0.3620 ca         1 9P7       0.324000
      2 C11         -0.9450     0.2330     0.9240 c3         1 9P7       0.204100
      3 C13          1.3610     0.2740     0.2100 c3         1 9P7       0.160800
      4 C14          2.2840     0.4900    -0.9890 c3         1 9P7      -0.040100
      5 N29          8.8200    -0.0290     1.0210 n1         1 9P7      -0.459000
      6 C24          6.3660     0.1550     0.2490 ca         1 9P7      -0.027000
      7 C25          5.7380     1.4000     0.2580 ca         1 9P7      -0.066000
      8 C23          5.6890    -0.9970    -0.1780 ca         1 9P7      -0.031300
      9 C27          6.3660    -2.3330    -0.1920 c3         1 9P7      -0.055800
     10 C22          4.3710    -0.8510    -0.5880 ca         1 9P7      -0.116000
     11 C21          3.7250     0.3830    -0.5870 ca         1 9P7      -0.052300
     12 C26          4.4250     1.5090    -0.1570 ca         1 9P7      -0.116000
     13 N12         -0.0270     0.3970    -0.1860 n7         1 9P7      -0.864400
     14 C08         -2.3700     0.4360     0.4840 ca         1 9P7      -0.068300
     15 C09         -3.3320    -0.5060     0.7530 ca         1 9P7      -0.102000
     16 C07         -2.7230     1.6170    -0.2070 ca         1 9P7      -0.106000
     17 C06         -4.0180     1.8280    -0.5980 ca         1 9P7      -0.080000
     18 C05         -5.0160     0.8720    -0.3240 ca         1 9P7      -0.126000
     19 C04         -6.3730     1.0290    -0.7060 ca         1 9P7      -0.029000
     20 C03         -7.2770     0.0630    -0.4080 ca         1 9P7      -0.210000
     21 C02         -6.8330    -1.1040     0.2890 ca         1 9P7       0.614900
     22 N02         -7.7410    -2.0540     0.6280 nv         1 9P7      -1.068900
     23 N01         -5.5830    -1.2800     0.6520 nb         1 9P7      -0.760000
     24 H1          -0.8530    -0.7420     1.4240 h1         1 9P7       0.039200
     25 H2          -0.6950     0.9870     1.6790 h1         1 9P7       0.039200
     26 H3           1.5930    -0.6990     0.6720 h1         1 9P7       0.034200
     27 H4           1.5710     1.0340     0.9690 h1         1 9P7       0.034200
     28 H5           2.0570    -0.2530    -1.7580 hc         1 9P7       0.057700
     29 H6           2.0840     1.4740    -1.4180 hc         1 9P7       0.057700
     30 H7           6.2820     2.2760     0.5870 ha         1 9P7       0.126000
     31 H8           6.7140    -2.6130     0.8040 hc         1 9P7       0.051367
     32 H9           5.6900    -3.1100    -0.5410 hc         1 9P7       0.051367
     33 H10          7.2380    -2.3280    -0.8490 hc         1 9P7       0.051367
     34 H11          3.8320    -1.7290    -0.9250 ha         1 9P7       0.116000
     35 H12          3.9410     2.4770    -0.1540 ha         1 9P7       0.121000
     36 H13         -0.2330    -0.3040    -0.8890 hn         1 9P7       0.412000
     37 H15         -3.0720    -1.4200     1.2750 ha         1 9P7       0.125000
     38 H16         -1.9590     2.3510    -0.4260 ha         1 9P7       0.127000
     39 H17         -4.2910     2.7360    -1.1250 ha         1 9P7       0.112000
     40 H18         -6.6800     1.9240    -1.2340 ha         1 9P7       0.117000
     41 H19         -8.3180     0.1620    -0.6880 ha         1 9P7       0.120000
     42 H20         -8.6190    -2.0790     0.1400 hn         1 9P7       0.477500
     43 H21         -7.3870    -2.9480     0.9250 hn         1 9P7       0.477500
     44 C28          7.7230     0.0560     0.6770 cg         1 9P7       0.326000
@<TRIPOS>BOND
     1     1    15 ar  
     2     1    18 ar  
     3     1    23 ar  
     4     2    13 1   
     5     2    14 1   
     6     2    24 1   
     7     2    25 1   
     8     3     4 1   
     9     3    13 1   
    10     3    26 1   
    11     3    27 1   
    12     4    11 1   
    13     4    28 1   
    14     4    29 1   
    15     5    44 3   
    16     6     7 ar  
    17     6     8 ar  
    18     6    44 1   
    19     7    12 ar  
    20     7    30 1   
    21     8     9 1   
    22     8    10 ar  
    23     9    31 1   
    24     9    32 1   
    25     9    33 1   
    26    10    11 ar  
    27    10    34 1   
    28    11    12 ar  
    29    12    35 1   
    30    13    36 1   
    31    14    15 ar  
    32    14    16 ar  
    33    15    37 1   
    34    16    17 ar  
    35    16    38 1   
    36    17    18 ar  
    37    17    39 1   
    38    18    19 ar  
    39    19    20 ar  
    40    19    40 1   
    41    20    21 ar  
    42    20    41 1   
    43    21    22 1   
    44    21    23 ar  
    45    22    42 1   
    46    22    43 1   
@<TRIPOS>SUBSTRUCTURE
     1 9P7         1 TEMP              0 ****  ****    0 ROOT
