@<TRIPOS>MOLECULE
9P7
   44    46     1     0     0
SMALL
No Charge or Current Charge


@<TRIPOS>ATOM
      1 C10         -4.5950    -0.3000     0.2760 ca         1 9P7       0.324000
      2 C11         -0.9900     0.6910     1.1830 c3         1 9P7       0.204100
      3 C13          1.3440     0.4540     0.3530 c3         1 9P7       0.160800
      4 C14          2.1910     0.3720    -0.9320 c3         1 9P7      -0.040100
      5 N29          8.9860    -0.1100     0.4790 n1         1 9P7      -0.459000
      6 C24          6.4350     0.0190    -0.0480 ca         1 9P7      -0.027000
      7 C25          5.8580     1.2830    -0.2800 ca         1 9P7      -0.066000
      8 C23          5.6270    -1.1430    -0.1050 ca         1 9P7      -0.031300
      9 C27          6.2070    -2.5350     0.1410 c3         1 9P7      -0.055800
     10 C22          4.2530    -1.0130    -0.3940 ca         1 9P7      -0.116000
     11 C21          3.6790     0.2500    -0.6270 ca         1 9P7      -0.052300
     12 C26          4.4880     1.3980    -0.5670 ca         1 9P7      -0.116000
     13 N12         -0.0880     0.5780     0.0220 n7         1 9P7      -0.864400
     14 C08         -2.4400     0.7850     0.7260 ca         1 9P7      -0.068300
     15 C09         -3.2530    -0.3660     0.6920 ca         1 9P7      -0.102000
     16 C07         -2.9800     2.0240     0.3340 ca         1 9P7      -0.106000
     17 C06         -4.3160     2.1130    -0.0850 ca         1 9P7      -0.080000
     18 C05         -5.1230     0.9600    -0.1150 ca         1 9P7      -0.126000
     19 C04         -6.4630     1.0460    -0.5350 ca         1 9P7      -0.029000
     20 C03         -7.2230    -0.1310    -0.5470 ca         1 9P7      -0.210000
     21 C02         -6.6080    -1.3160    -0.1390 ca         1 9P7       0.614900
     22 N02         -7.2220    -2.5000    -0.1140 nv         1 9P7      -1.068900
     23 N01         -5.3480    -1.4270     0.2570 nb         1 9P7      -0.760000
     24 H1          -0.8760    -0.1800     1.8430 h1         1 9P7       0.039200
     25 H2          -0.7430     1.5830     1.7750 h1         1 9P7       0.039200
     26 H3           1.5220    -0.4480     0.9550 h1         1 9P7       0.034200
     27 H4           1.6770     1.3200     0.9410 h1         1 9P7       0.034200
     28 H5           1.8600    -0.4860    -1.5300 hc         1 9P7       0.057700
     29 H6           2.0030     1.2640    -1.5430 hc         1 9P7       0.057700
     30 H7           6.4710     2.1820    -0.2370 ha         1 9P7       0.126000
     31 H8           6.6420    -2.6110     1.1450 hc         1 9P7       0.051367
     32 H9           5.4430    -3.3170     0.0580 hc         1 9P7       0.051367
     33 H10          6.9930    -2.7700    -0.5870 hc         1 9P7       0.051367
     34 H11          3.6250    -1.9000    -0.4380 ha         1 9P7       0.116000
     35 H12          4.0560     2.3810    -0.7410 ha         1 9P7       0.121000
     36 H13         -0.3690    -0.2520    -0.5120 hn         1 9P7       0.412000
     37 H15         -2.8400    -1.3250     0.9920 ha         1 9P7       0.125000
     38 H16         -2.3590     2.9180     0.3520 ha         1 9P7       0.127000
     39 H17         -4.7220     3.0760    -0.3860 ha         1 9P7       0.112000
     40 H18         -6.9000     1.9940    -0.8420 ha         1 9P7       0.117000
     41 H19         -8.2620    -0.1220    -0.8610 ha         1 9P7       0.120000
     42 H20         -8.0310    -2.6150    -0.7150 hn         1 9P7       0.477500
     43 H21         -6.6030    -3.2980    -0.0320 hn         1 9P7       0.477500
     44 C28          7.8430    -0.0580     0.2440 cg         1 9P7       0.326000
@<TRIPOS>BOND
     1     1    15 ar  
     2     1    18 ar  
     3     1    23 ar  
     4     2    13 1   
     5     2    14 1   
     6     2    24 1   
     7     2    25 1   
     8     3     4 1   
     9     3    13 1   
    10     3    26 1   
    11     3    27 1   
    12     4    11 1   
    13     4    28 1   
    14     4    29 1   
    15     5    44 3   
    16     6     7 ar  
    17     6     8 ar  
    18     6    44 1   
    19     7    12 ar  
    20     7    30 1   
    21     8     9 1   
    22     8    10 ar  
    23     9    31 1   
    24     9    32 1   
    25     9    33 1   
    26    10    11 ar  
    27    10    34 1   
    28    11    12 ar  
    29    12    35 1   
    30    13    36 1   
    31    14    15 ar  
    32    14    16 ar  
    33    15    37 1   
    34    16    17 ar  
    35    16    38 1   
    36    17    18 ar  
    37    17    39 1   
    38    18    19 ar  
    39    19    20 ar  
    40    19    40 1   
    41    20    21 ar  
    42    20    41 1   
    43    21    22 1   
    44    21    23 ar  
    45    22    42 1   
    46    22    43 1   
@<TRIPOS>SUBSTRUCTURE
     1 9P7         1 TEMP              0 ****  ****    0 ROOT
