@<TRIPOS>MOLECULE
9P8
   87    91     1     0     0
SMALL
bcc


@<TRIPOS>ATOM
      1 C4          -7.0950    -3.0780     0.8390 c6         1 9P8       0.118100
      2 C5          -5.7770    -3.0660     0.0620 c6         1 9P8       0.157100
      3 C6          -5.7520    -4.1070    -1.0350 c3         1 9P8       0.149400
      4 N1           9.5480    -3.7900     0.2210 nb         1 9P8      -0.680000
      5 C3          -7.0980    -1.9450     1.8610 c6         1 9P8       0.116100
      6 CBQ          8.0980    -2.3190    -0.9710 ca         1 9P8      -0.218300
      7 CBS          8.8370    -2.5130    -2.1290 ca         1 9P8      -0.095000
      8 CBV          9.9370    -3.3550    -2.0960 ca         1 9P8      -0.249300
      9 CBT         10.2470    -3.9690    -0.8910 ca         1 9P8       0.407200
     10 CBP          8.4920    -2.9810     0.1850 ca         1 9P8       0.411600
     11 CBN          7.7650    -2.8450     1.4940 c3         1 9P8       0.087100
     12 OBO          6.7030    -1.9430     1.3690 os         1 9P8      -0.422600
     13 CBI          4.8770    -0.8090     2.2740 cc         1 9P8       0.258600
     14 CBH          4.5280    -0.2150     1.0930 cd         1 9P8      -0.186600
     15 NBL          4.0150    -0.3860     3.2250 nc         1 9P8      -0.353000
     16 NBK          3.1670     0.4260     2.6990 nd         1 9P8      -0.204800
     17 NBJ          3.4590     0.5390     1.4150 na         1 9P8       0.096400
     18 CAM          2.7170     1.4220     0.5530 c6         1 9P8       0.239800
     19 CAL          1.2100     1.3310     0.8070 c6         1 9P8       0.094100
     20 OBB          0.7460     0.0340     0.5620 oh         1 9P8      -0.588800
     21 OBE          3.1780     2.7180     0.7740 os         1 9P8      -0.389600
     22 CAN          2.6280     3.6470    -0.1440 c6         1 9P8       0.116100
     23 CAR          3.2730     4.9880     0.1240 c3         1 9P8       0.148400
     24 OAU          4.6520     4.8910    -0.1340 oh         1 9P8      -0.581800
     25 CAO          1.0990     3.7050     0.0080 c6         1 9P8       0.114100
     26 OBA          0.5260     4.5230    -0.9770 oh         1 9P8      -0.564800
     27 CAK          0.5150     2.3030    -0.1430 c6         1 9P8       0.150100
     28 OBG         -0.8640     2.3500     0.1520 os         1 9P8      -0.396600
     29 CAH         -1.7030     1.6350    -0.6830 c6         1 9P8       0.312900
     30 CAG         -2.9810     1.3170     0.0910 c6         1 9P8       0.101100
     31 OAZ         -2.7190     0.5040     1.2030 oh         1 9P8      -0.589800
     32 OBD         -2.0030     2.4280    -1.7960 os         1 9P8      -0.408600
     33 CAI         -2.7910     1.7400    -2.7440 c6         1 9P8       0.121100
     34 CAQ         -2.9570     2.6350    -3.9520 c3         1 9P8       0.148400
     35 OAT         -1.6990     2.8500    -4.5430 oh         1 9P8      -0.580800
     36 CAJ         -4.1480     1.3650    -2.1270 c6         1 9P8       0.114100
     37 OAY         -4.9050     0.5690    -3.0030 oh         1 9P8      -0.568800
     38 CAF         -3.9400     0.5780    -0.8360 c6         1 9P8       0.157100
     39 O1          -5.2110     0.4160    -0.2350 os         1 9P8      -0.401600
     40 C1          -5.4580    -0.7740     0.4210 c6         1 9P8       0.317900
     41 O5          -5.6030    -1.7970    -0.5300 os         1 9P8      -0.414600
     42 O6          -4.4850    -4.0930    -1.6470 oh         1 9P8      -0.587800
     43 O4          -7.2290    -4.3290     1.4670 oh         1 9P8      -0.596800
     44 O3          -8.3680    -1.9320     2.4680 oh         1 9P8      -0.604800
     45 C2          -6.7620    -0.6160     1.1990 c6         1 9P8       0.093100
     46 O2          -6.6590     0.3520     2.2120 oh         1 9P8      -0.599800
     47 H1          -7.9150    -2.9050     0.1230 h1         1 9P8       0.055700
     48 H2          -4.9540    -3.2710     0.7680 h1         1 9P8       0.059700
     49 H3          -5.9740    -5.0820    -0.5900 h1         1 9P8       0.036200
     50 H4          -6.5560    -3.8890    -1.7520 h1         1 9P8       0.036200
     51 H5          -6.3120    -2.1630     2.6020 h1         1 9P8       0.054700
     52 H7           8.5560    -2.0090    -3.0450 ha         1 9P8       0.136000
     53 H8          10.5410    -3.5330    -2.9740 ha         1 9P8       0.142000
     54 H9          11.1010    -4.6340    -0.8220 h4         1 9P8       0.018100
     55 H10          7.4090    -3.8370     1.8060 h1         1 9P8       0.047700
     56 H11          8.4790    -2.5140     2.2620 h1         1 9P8       0.047700
     57 H12          5.5710    -2.7190     2.9190 h1         1 9P8       0.044700
     58 H13          6.6210    -1.3730     3.3590 h1         1 9P8       0.044700
     59 H14          4.9280    -0.2640     0.0950 h4         1 9P8       0.196000
     60 H15          2.9300     1.0940    -0.4740 h2         1 9P8       0.066700
     61 H16          1.0090     1.6510     1.8370 h1         1 9P8       0.079700
     62 H17          0.7340    -0.4590     1.3870 ho         1 9P8       0.430000
     63 H18          2.8600     3.3330    -1.1750 h1         1 9P8       0.067700
     64 H19          2.7950     5.7350    -0.5210 h1         1 9P8       0.030200
     65 H20          3.0690     5.2820     1.1630 h1         1 9P8       0.030200
     66 H21          5.0480     5.7470     0.0520 ho         1 9P8       0.409000
     67 H22          0.8660     4.0690     1.0190 h1         1 9P8       0.055700
     68 H23          0.4730     5.4230    -0.6430 ho         1 9P8       0.408000
     69 H24          0.6770     1.9700    -1.1780 h1         1 9P8       0.079700
     70 H25         -1.2300     0.6940    -1.0130 h2         1 9P8       0.055700
     71 H26         -3.4440     2.2710     0.3870 h1         1 9P8       0.058700
     72 H27         -2.1210     0.9790     1.7900 ho         1 9P8       0.421000
     73 H28         -2.2840     0.8100    -3.0540 h1         1 9P8       0.065700
     74 H29         -3.6470     2.1480    -4.6510 h1         1 9P8       0.025200
     75 H30         -3.4280     3.5760    -3.6360 h1         1 9P8       0.025200
     76 H31         -1.8310     3.3770    -5.3360 ho         1 9P8       0.404000
     77 H32         -4.6780     2.2960    -1.8750 h1         1 9P8       0.049700
     78 H33         -5.4480     1.1390    -3.5530 ho         1 9P8       0.405000
     79 H34         -3.5050    -0.3980    -1.0930 h1         1 9P8       0.088700
     80 H35         -4.6430    -1.0300     1.1170 h2         1 9P8       0.057700
     81 H36         -4.4380    -4.8430    -2.2470 ho         1 9P8       0.403000
     82 H37         -8.0550    -4.3290     1.9620 ho         1 9P8       0.425000
     83 H38         -8.3340    -1.3680     3.2460 ho         1 9P8       0.426000
     84 H39         -7.5570    -0.3650     0.4790 h1         1 9P8       0.063700
     85 H40         -6.5600     1.2160     1.7980 ho         1 9P8       0.423000
     86 CBM          5.9820    -1.7660     2.5560 c3         1 9P8       0.128100
     87 H6           7.2370    -1.6660    -0.9750 ha         1 9P8       0.153000
@<TRIPOS>BOND
     1     1     2 1   
     2     1     5 1   
     3     1    43 1   
     4     1    47 1   
     5     2     3 1   
     6     2    41 1   
     7     2    48 1   
     8     3    42 1   
     9     3    49 1   
    10     3    50 1   
    11     4     9 ar  
    12     4    10 ar  
    13     5    44 1   
    14     5    45 1   
    15     5    51 1   
    16     6     7 ar  
    17     6    10 ar  
    18     6    87 1   
    19     7     8 ar  
    20     7    52 1   
    21     8     9 ar  
    22     8    53 1   
    23     9    54 1   
    24    10    11 1   
    25    11    12 1   
    26    11    55 1   
    27    11    56 1   
    28    12    86 1   
    29    13    14 2   
    30    13    15 1   
    31    13    86 1   
    32    14    17 1   
    33    14    59 1   
    34    15    16 2   
    35    16    17 1   
    36    17    18 1   
    37    18    19 1   
    38    18    21 1   
    39    18    60 1   
    40    19    20 1   
    41    19    27 1   
    42    19    61 1   
    43    20    62 1   
    44    21    22 1   
    45    22    23 1   
    46    22    25 1   
    47    22    63 1   
    48    23    24 1   
    49    23    64 1   
    50    23    65 1   
    51    24    66 1   
    52    25    26 1   
    53    25    27 1   
    54    25    67 1   
    55    26    68 1   
    56    27    28 1   
    57    27    69 1   
    58    28    29 1   
    59    29    30 1   
    60    29    32 1   
    61    29    70 1   
    62    30    31 1   
    63    30    38 1   
    64    30    71 1   
    65    31    72 1   
    66    32    33 1   
    67    33    34 1   
    68    33    36 1   
    69    33    73 1   
    70    34    35 1   
    71    34    74 1   
    72    34    75 1   
    73    35    76 1   
    74    36    37 1   
    75    36    38 1   
    76    36    77 1   
    77    37    78 1   
    78    38    39 1   
    79    38    79 1   
    80    39    40 1   
    81    40    41 1   
    82    40    45 1   
    83    40    80 1   
    84    42    81 1   
    85    43    82 1   
    86    44    83 1   
    87    45    46 1   
    88    45    84 1   
    89    46    85 1   
    90    57    86 1   
    91    58    86 1   
@<TRIPOS>SUBSTRUCTURE
     1 9P8         1 TEMP              0 ****  ****    0 ROOT
