@<TRIPOS>MOLECULE
9P8
   87    91     1     0     0
SMALL
No Charge or Current Charge


@<TRIPOS>ATOM
      1 C4          -7.4500    -2.7760     1.1720 c6         1 9P8       0.141300
      2 C5          -5.9900    -2.8620     0.6180 c6         1 9P8       0.180300
      3 C6          -5.7200    -4.1990    -0.1490 c3         1 9P8       0.172600
      4 N1          10.2150    -2.6770     0.0270 nb         1 9P8      -0.680000
      5 C3          -7.6770    -1.3800     1.8280 c6         1 9P8       0.139300
      6 CBQ          8.4050    -2.7600    -1.5850 ca         1 9P8      -0.135000
      7 CBS          9.2920    -2.4880    -2.6400 ca         1 9P8      -0.077000
      8 CBV         10.6500    -2.3130    -2.3300 ca         1 9P8      -0.166000
      9 CBT         11.0670    -2.4150    -0.9910 ca         1 9P8       0.341900
     10 CBP          8.8990    -2.8450    -0.2680 ca         1 9P8       0.346300
     11 CBN          7.9520    -3.1480     0.8980 c3         1 9P8       0.110300
     12 OBO          6.8830    -2.1770     0.9420 os         1 9P8      -0.469000
     13 CBI          4.8630    -1.3110     1.9420 cc         1 9P8       0.193300
     14 CBH          4.4810    -0.5660     0.8690 cd         1 9P8      -0.154000
     15 NBL          4.1210    -0.9780     3.0440 nc         1 9P8      -0.353000
     16 NBK          3.2790    -0.0330     2.7090 nd         1 9P8      -0.204800
     17 NBJ          3.4810     0.2330     1.3760 na         1 9P8       0.117800
     18 CAM          2.7120     1.2490     0.6130 c6         1 9P8       0.292300
     19 CAL          1.1690     1.1570     0.8760 c6         1 9P8       0.117300
     20 OBB          0.6380    -0.1420     0.5090 oh         1 9P8      -0.711000
     21 OBE          3.2090     2.5580     0.9850 os         1 9P8      -0.436000
     22 CAN          2.6270     3.6550     0.2360 c6         1 9P8       0.139300
     23 CAR          3.3380     4.9790     0.6700 c3         1 9P8       0.171600
     24 OAU          4.7700     4.9340     0.5030 oh         1 9P8      -0.704000
     25 CAO          1.0900     3.6920     0.4870 c6         1 9P8       0.137300
     26 OBA          0.4450     4.7530    -0.2430 oh         1 9P8      -0.687000
     27 CAK          0.4630     2.3210     0.1010 c6         1 9P8       0.173300
     28 OBG         -0.9730     2.3810     0.3170 os         1 9P8      -0.443000
     29 CAH         -1.7780     1.5480    -0.5400 c6         1 9P8       0.359300
     30 CAG         -3.2460     1.4980    -0.0060 c6         1 9P8       0.124300
     31 OAZ         -3.2940     1.0250     1.3620 oh         1 9P8      -0.712000
     32 OBD         -1.7690     2.1120    -1.8640 os         1 9P8      -0.455000
     33 CAI         -2.4830     1.3160    -2.8460 c6         1 9P8       0.144300
     34 CAQ         -2.2880     1.9750    -4.2510 c3         1 9P8       0.171600
     35 OAT         -0.9030     2.1310    -4.6190 oh         1 9P8      -0.703000
     36 CAJ         -3.9840     1.2110    -2.4370 c6         1 9P8       0.137300
     37 OAY         -4.7450     0.4060    -3.3590 oh         1 9P8      -0.691000
     38 CAF         -4.1030     0.6360    -0.9940 c6         1 9P8       0.180300
     39 O1          -5.5100     0.5490    -0.6340 os         1 9P8      -0.448000
     40 C1          -5.8540    -0.4600     0.3350 c6         1 9P8       0.364300
     41 O5          -5.7410    -1.7530    -0.2880 os         1 9P8      -0.461000
     42 O6          -4.3930    -4.2790    -0.7120 oh         1 9P8      -0.710000
     43 O4          -7.7350    -3.8140     2.1300 oh         1 9P8      -0.719000
     44 O3          -9.0370    -1.2420     2.2770 oh         1 9P8      -0.667000
     45 C2          -7.3260    -0.2530     0.8180 c6         1 9P8       0.116300
     46 O2          -7.5410     1.0520     1.4090 oh         1 9P8      -0.722000
     47 H1          -8.1390    -2.8660     0.3180 h1         1 9P8       0.055700
     48 H2          -5.2790    -2.8000     1.4560 h1         1 9P8       0.059700
     49 H3          -5.8790    -5.0330     0.5480 h1         1 9P8       0.036200
     50 H4          -6.4720    -4.2930    -0.9440 h1         1 9P8       0.036200
     51 H5          -6.9940    -1.2870     2.6860 h1         1 9P8       0.054700
     52 H7           8.9370    -2.4160    -3.6660 ha         1 9P8       0.118000
     53 H8          11.3760    -2.1000    -3.1100 ha         1 9P8       0.124000
     54 H9          12.1160    -2.2840    -0.7260 h4         1 9P8       0.018100
     55 H10          7.5460    -4.1590     0.7630 h1         1 9P8       0.047700
     56 H11          8.5160    -3.1390     1.8410 h1         1 9P8       0.047700
     57 H12          5.4500    -3.3650     1.9110 h1         1 9P8       0.044700
     58 H13          6.4270    -2.3370     2.9830 h1         1 9P8       0.044700
     59 H14          4.8290    -0.5440    -0.1550 h4         1 9P8       0.178000
     60 H15          2.9200     1.0600    -0.4500 h2         1 9P8       0.066700
     61 H16          0.9990     1.3360     1.9490 h1         1 9P8       0.079700
     62 H17          0.8800    -0.7770     1.2260 ho         1 9P8       0.529000
     63 H18          2.8210     3.4980    -0.8360 h1         1 9P8       0.067700
     64 H19          2.9210     5.8050     0.0790 h1         1 9P8       0.030200
     65 H20          3.0890     5.1720     1.7220 h1         1 9P8       0.030200
     66 H21          5.1270     5.7800     0.8610 ho         1 9P8       0.508000
     67 H22          0.9290     3.8430     1.5650 h1         1 9P8       0.055700
     68 H23         -0.5010     4.4820    -0.3200 ho         1 9P8       0.507000
     69 H24          0.6480     2.1730    -0.9740 h1         1 9P8       0.079700
     70 H25         -1.3760     0.5260    -0.5710 h2         1 9P8       0.055700
     71 H26         -3.6380     2.5260    -0.0430 h1         1 9P8       0.058700
     72 H27         -2.5920     1.5210     1.8460 ho         1 9P8       0.520000
     73 H28         -2.0400     0.3090    -2.8780 h1         1 9P8       0.065700
     74 H29         -2.8020     1.3560    -4.9980 h1         1 9P8       0.025200
     75 H30         -2.7850     2.9550    -4.2420 h1         1 9P8       0.025200
     76 H31         -0.8870     2.6090    -5.4800 ho         1 9P8       0.503000
     77 H32         -4.3980     2.2310    -2.4240 h1         1 9P8       0.049700
     78 H33         -5.5580     0.1400    -2.8670 ho         1 9P8       0.504000
     79 H34         -3.6820    -0.3810    -1.0120 h1         1 9P8       0.088700
     80 H35         -5.1840    -0.4070     1.2030 h2         1 9P8       0.057700
     81 H36         -4.3480    -5.1210    -1.2210 ho         1 9P8       0.502000
     82 H37         -8.5380    -3.4990     2.6130 ho         1 9P8       0.524000
     83 H38         -9.1730    -0.2680     2.3570 ho         1 9P8       0.465000
     84 H39         -7.9760    -0.3670    -0.0630 h1         1 9P8       0.063700
     85 H40         -7.0950     1.7000     0.8120 ho         1 9P8       0.522000
     86 CBM          5.9290    -2.3820     2.0050 c3         1 9P8       0.151300
     87 H6           7.3450    -2.9020    -1.7790 ha         1 9P8       0.135000
@<TRIPOS>BOND
     1     1     2 1   
     2     1     5 1   
     3     1    43 1   
     4     1    47 1   
     5     2     3 1   
     6     2    41 1   
     7     2    48 1   
     8     3    42 1   
     9     3    49 1   
    10     3    50 1   
    11     4     9 ar  
    12     4    10 ar  
    13     5    44 1   
    14     5    45 1   
    15     5    51 1   
    16     6     7 ar  
    17     6    10 ar  
    18     6    87 1   
    19     7     8 ar  
    20     7    52 1   
    21     8     9 ar  
    22     8    53 1   
    23     9    54 1   
    24    10    11 1   
    25    11    12 1   
    26    11    55 1   
    27    11    56 1   
    28    12    86 1   
    29    13    14 2   
    30    13    15 1   
    31    13    86 1   
    32    14    17 1   
    33    14    59 1   
    34    15    16 2   
    35    16    17 1   
    36    17    18 1   
    37    18    19 1   
    38    18    21 1   
    39    18    60 1   
    40    19    20 1   
    41    19    27 1   
    42    19    61 1   
    43    20    62 1   
    44    21    22 1   
    45    22    23 1   
    46    22    25 1   
    47    22    63 1   
    48    23    24 1   
    49    23    64 1   
    50    23    65 1   
    51    24    66 1   
    52    25    26 1   
    53    25    27 1   
    54    25    67 1   
    55    26    68 1   
    56    27    28 1   
    57    27    69 1   
    58    28    29 1   
    59    29    30 1   
    60    29    32 1   
    61    29    70 1   
    62    30    31 1   
    63    30    38 1   
    64    30    71 1   
    65    31    72 1   
    66    32    33 1   
    67    33    34 1   
    68    33    36 1   
    69    33    73 1   
    70    34    35 1   
    71    34    74 1   
    72    34    75 1   
    73    35    76 1   
    74    36    37 1   
    75    36    38 1   
    76    36    77 1   
    77    37    78 1   
    78    38    39 1   
    79    38    79 1   
    80    39    40 1   
    81    40    41 1   
    82    40    45 1   
    83    40    80 1   
    84    42    81 1   
    85    43    82 1   
    86    44    83 1   
    87    45    46 1   
    88    45    84 1   
    89    46    85 1   
    90    57    86 1   
    91    58    86 1   
@<TRIPOS>SUBSTRUCTURE
     1 9P8         1 TEMP              0 ****  ****    0 ROOT
