@<TRIPOS>MOLECULE
9PA
   56    57     1     0     0
SMALL
No Charge or Current Charge


@<TRIPOS>ATOM
      1 O1           3.7470    -1.4590     1.5490 o          1 9PA      -0.707000
      2 C2           2.8910    -0.5840     1.5230 c          1 9PA       0.721600
      3 O3           2.0590    -0.4230     2.4050 o          1 9PA      -0.707000
      4 C4           2.8730     0.3550     0.3480 ca         1 9PA      -0.098600
      5 C5           3.3510     1.6670     0.5030 ca         1 9PA       0.064100
      6 O6           3.8650     2.2010     1.6420 os         1 9PA      -0.313100
      7 C7           4.1070     3.6010     1.2670 c5         1 9PA       0.367600
      8 O8           3.8980     3.7580    -0.1810 os         1 9PA      -0.369100
      9 C9           3.3760     2.5570    -0.5350 ca         1 9PA       0.025100
     10 C10          2.9280     2.2100    -1.8120 ca         1 9PA      -0.130000
     11 C11          2.4340     0.9050    -2.0070 ca         1 9PA      -0.138000
     12 C12          2.3960    -0.0290    -0.9390 ca         1 9PA      -0.066300
     13 C13          1.8410    -1.4310    -1.2040 c3         1 9PA      -0.018100
     14 C14          0.4000    -1.6590    -0.6630 c3         1 9PA      -0.076700
     15 C15         -0.6080    -0.6890    -1.3450 c3         1 9PA       0.097000
     16 N16         -1.8370    -0.4930    -0.5700 ns         1 9PA      -0.491900
     17 C17         -3.1120    -0.5160    -1.0880 c          1 9PA       0.598100
     18 O18         -3.3390    -0.6890    -2.2770 o          1 9PA      -0.636100
     19 C19         -4.2300    -0.3500    -0.0520 c3         1 9PA      -0.159400
     20 C20         -4.8820     1.0500    -0.1380 c3         1 9PA      -0.067400
     21 C21         -6.0130     1.2560     0.8940 c3         1 9PA      -0.080400
     22 C22         -6.6610     2.6530     0.8020 c3         1 9PA       0.147800
     23 N23         -7.7370     2.8170     1.7970 n8         1 9PA      -0.997200
     24 C24          0.0190    -3.1680    -0.8130 c3         1 9PA      -0.064400
     25 C25         -1.3190    -3.6510    -0.1790 c3         1 9PA      -0.057700
     26 C26         -1.5580    -5.1470    -0.4890 c3         1 9PA      -0.085600
     27 C27         -1.3960    -3.3960     1.3450 c3         1 9PA      -0.085600
     28 H7           3.3930     4.2390     1.8000 h2         1 9PA       0.042700
     29 H7A          5.1340     3.8830     1.5270 h2         1 9PA       0.042700
     30 H10          2.9610     2.9260    -2.6290 ha         1 9PA       0.108000
     31 H11          2.0770     0.6180    -2.9930 ha         1 9PA       0.094000
     32 H13          1.8490    -1.6410    -2.2820 hc         1 9PA       0.051700
     33 H13A         2.5160    -2.1760    -0.7650 hc         1 9PA       0.051700
     34 H14          0.4270    -1.4180     0.4050 hc         1 9PA       0.092700
     35 H15         -0.1530     0.3010    -1.4610 h1         1 9PA       0.053700
     36 H15A        -0.8450    -1.0600    -2.3510 h1         1 9PA       0.053700
     37 HN16        -1.7570    -0.3390     0.4270 hn         1 9PA       0.318500
     38 H19         -5.0010    -1.1050    -0.2450 hc         1 9PA       0.057200
     39 H19A        -3.8260    -0.4830     0.9590 hc         1 9PA       0.057200
     40 H20         -4.1110     1.8170     0.0130 hc         1 9PA       0.049700
     41 H20A        -5.2860     1.1990    -1.1480 hc         1 9PA       0.049700
     42 H21         -6.7830     0.4900     0.7410 hc         1 9PA       0.044700
     43 H21A        -5.6080     1.1090     1.9040 hc         1 9PA       0.044700
     44 H22         -5.9000     3.4270     0.9750 h1         1 9PA       0.026700
     45 H22A        -7.0840     2.7990    -0.2010 h1         1 9PA       0.026700
     46 HN23        -7.3310     2.7620     2.7390 hn         1 9PA       0.387000
     47 HN2A        -8.0950     3.7790     1.7450 hn         1 9PA       0.387000
     48 H24          0.0020    -3.4100    -1.8830 hc         1 9PA       0.037700
     49 H24A         0.8260    -3.7730    -0.3810 hc         1 9PA       0.037700
     50 H25         -2.1430    -3.1090    -0.6540 hc         1 9PA       0.045700
     51 H26         -0.7760    -5.7700    -0.0400 hc         1 9PA       0.028367
     52 H26A        -2.5270    -5.4750    -0.0940 hc         1 9PA       0.028367
     53 H26B        -1.5590    -5.3240    -1.5710 hc         1 9PA       0.028367
     54 H27         -2.3360    -3.7860     1.7540 hc         1 9PA       0.028367
     55 H27A        -0.5660    -3.8890     1.8660 hc         1 9PA       0.028367
     56 H27B        -1.3590    -2.3250     1.5750 hc         1 9PA       0.028367
@<TRIPOS>BOND
     1     1     2 1   
     2     2     3 1   
     3     2     4 1   
     4     4     5 ar  
     5     4    12 ar  
     6     5     6 1   
     7     5     9 ar  
     8     6     7 1   
     9     7     8 1   
    10     7    28 1   
    11     7    29 1   
    12     8     9 1   
    13     9    10 ar  
    14    10    11 ar  
    15    10    30 1   
    16    11    12 ar  
    17    11    31 1   
    18    12    13 1   
    19    13    14 1   
    20    13    32 1   
    21    13    33 1   
    22    14    15 1   
    23    14    24 1   
    24    14    34 1   
    25    15    16 1   
    26    15    35 1   
    27    15    36 1   
    28    16    17 1   
    29    16    37 1   
    30    17    18 2   
    31    17    19 1   
    32    19    20 1   
    33    19    38 1   
    34    19    39 1   
    35    20    21 1   
    36    20    40 1   
    37    20    41 1   
    38    21    22 1   
    39    21    42 1   
    40    21    43 1   
    41    22    23 1   
    42    22    44 1   
    43    22    45 1   
    44    23    46 1   
    45    23    47 1   
    46    24    25 1   
    47    24    48 1   
    48    24    49 1   
    49    25    26 1   
    50    25    27 1   
    51    25    50 1   
    52    26    51 1   
    53    26    52 1   
    54    26    53 1   
    55    27    54 1   
    56    27    55 1   
    57    27    56 1   
@<TRIPOS>SUBSTRUCTURE
     1 9PA         1 TEMP              0 ****  ****    0 ROOT
