@<TRIPOS>MOLECULE
9PA
   56    57     1     0     0
SMALL
bcc


@<TRIPOS>ATOM
      1 O1           3.3720    -1.8820     1.2860 o          1 9PA      -0.812300
      2 C2           2.8420    -0.7710     1.4600 c          1 9PA       0.932200
      3 O3           2.2660    -0.3550     2.4800 o          1 9PA      -0.812300
      4 C4           2.9380     0.2150     0.3030 ca         1 9PA      -0.098600
      5 C5           3.4980     1.4540     0.5080 ca         1 9PA       0.064100
      6 O6           3.9840     1.9690     1.6720 os         1 9PA      -0.289900
      7 C7           4.6910     3.1430     1.3120 c5         1 9PA       0.321200
      8 O8           4.2600     3.5030     0.0070 os         1 9PA      -0.345900
      9 C9           3.6700     2.3880    -0.5000 ca         1 9PA       0.025100
     10 C10          3.2530     2.1430    -1.7830 ca         1 9PA      -0.148000
     11 C11          2.6510     0.8990    -2.0100 ca         1 9PA      -0.156000
     12 C12          2.4920    -0.0550    -1.0110 ca         1 9PA      -0.066300
     13 C13          1.7950    -1.3520    -1.3290 c3         1 9PA      -0.018100
     14 C14          0.4080    -1.4950    -0.6770 c3         1 9PA      -0.076700
     15 C15         -0.5520    -0.4620    -1.2760 c3         1 9PA       0.097000
     16 N16         -1.6710    -0.1510    -0.4130 ns         1 9PA      -0.558900
     17 C17         -2.9650    -0.2020    -0.7650 c          1 9PA       0.665100
     18 O18         -3.3440    -0.4990    -1.8920 o          1 9PA      -0.636100
     19 C19         -3.9460     0.0930     0.3500 c3         1 9PA      -0.159400
     20 C20         -5.1010     0.9800    -0.0980 c3         1 9PA      -0.067400
     21 C21         -6.1460     1.1650     0.9930 c3         1 9PA      -0.080400
     22 C22         -7.2910     2.0660     0.5560 c3         1 9PA       0.147800
     23 N23         -8.2810     2.2040     1.6150 n8         1 9PA      -0.886800
     24 C24         -0.0660    -2.9400    -0.8530 c3         1 9PA      -0.064400
     25 C25         -1.3830    -3.3590    -0.1960 c3         1 9PA      -0.057700
     26 C26         -1.6860    -4.8140    -0.5460 c3         1 9PA      -0.085600
     27 C27         -1.3580    -3.1780     1.3170 c3         1 9PA      -0.085600
     28 H7           4.4580     3.9450     2.0120 h2         1 9PA       0.042700
     29 H7A          5.7700     2.9440     1.3040 h2         1 9PA       0.042700
     30 H10          3.3770     2.8650    -2.5780 ha         1 9PA       0.126000
     31 H11          2.3000     0.6700    -3.0090 ha         1 9PA       0.112000
     32 H13          1.6840    -1.4460    -2.4140 hc         1 9PA       0.051700
     33 H13A         2.4130    -2.1890    -1.0030 hc         1 9PA       0.051700
     34 H14          0.5180    -1.2840     0.3930 hc         1 9PA       0.092700
     35 H15         -0.0100     0.4640    -1.4860 h1         1 9PA       0.053700
     36 H15A        -0.9430    -0.8220    -2.2290 h1         1 9PA       0.053700
     37 HN16        -1.4480     0.1620     0.5170 hn         1 9PA       0.318500
     38 H19         -4.3350    -0.8720     0.6930 hc         1 9PA       0.057200
     39 H19A        -3.4400     0.5390     1.2100 hc         1 9PA       0.057200
     40 H20         -4.7130     1.9560    -0.4030 hc         1 9PA       0.049700
     41 H20A        -5.5720     0.5430    -0.9820 hc         1 9PA       0.049700
     42 H21         -6.5490     0.1910     1.2890 hc         1 9PA       0.044700
     43 H21A        -5.6740     1.5890     1.8870 hc         1 9PA       0.044700
     44 H22         -6.8770     3.0260     0.2150 h1         1 9PA       0.026700
     45 H22A        -7.7830     1.6210    -0.3140 h1         1 9PA       0.026700
     46 HN23        -7.8750     2.7240     2.3840 hn         1 9PA       0.331800
     47 HN2A        -9.0510     2.7720     1.2840 hn         1 9PA       0.331800
     48 H24         -0.1310    -3.1470    -1.9280 hc         1 9PA       0.037700
     49 H24A         0.7220    -3.5990    -0.4680 hc         1 9PA       0.037700
     50 H25         -2.1970    -2.7560    -0.6060 hc         1 9PA       0.045700
     51 H26         -0.9020    -5.4790    -0.1740 hc         1 9PA       0.028367
     52 H26A        -2.6310    -5.1380    -0.1050 hc         1 9PA       0.028367
     53 H26B        -1.7570    -4.9590    -1.6260 hc         1 9PA       0.028367
     54 H27         -2.3050    -3.4840     1.7650 hc         1 9PA       0.028367
     55 H27A        -0.5680    -3.7870     1.7640 hc         1 9PA       0.028367
     56 H27B        -1.1790    -2.1440     1.6120 hc         1 9PA       0.028367
@<TRIPOS>BOND
     1     1     2 1   
     2     2     3 1   
     3     2     4 1   
     4     4     5 ar  
     5     4    12 ar  
     6     5     6 1   
     7     5     9 ar  
     8     6     7 1   
     9     7     8 1   
    10     7    28 1   
    11     7    29 1   
    12     8     9 1   
    13     9    10 ar  
    14    10    11 ar  
    15    10    30 1   
    16    11    12 ar  
    17    11    31 1   
    18    12    13 1   
    19    13    14 1   
    20    13    32 1   
    21    13    33 1   
    22    14    15 1   
    23    14    24 1   
    24    14    34 1   
    25    15    16 1   
    26    15    35 1   
    27    15    36 1   
    28    16    17 1   
    29    16    37 1   
    30    17    18 2   
    31    17    19 1   
    32    19    20 1   
    33    19    38 1   
    34    19    39 1   
    35    20    21 1   
    36    20    40 1   
    37    20    41 1   
    38    21    22 1   
    39    21    42 1   
    40    21    43 1   
    41    22    23 1   
    42    22    44 1   
    43    22    45 1   
    44    23    46 1   
    45    23    47 1   
    46    24    25 1   
    47    24    48 1   
    48    24    49 1   
    49    25    26 1   
    50    25    27 1   
    51    25    50 1   
    52    26    51 1   
    53    26    52 1   
    54    26    53 1   
    55    27    54 1   
    56    27    55 1   
    57    27    56 1   
@<TRIPOS>SUBSTRUCTURE
     1 9PA         1 TEMP              0 ****  ****    0 ROOT
