@<TRIPOS>MOLECULE
9PB
   94    99     1     0     0
SMALL
No Charge or Current Charge


@<TRIPOS>ATOM
      1 C4          15.4910    13.0760    20.8590 c6         1 9PB       0.143300
      2 C5          15.6770    11.7310    21.6330 c6         1 9PB       0.145300
      3 C6          17.1790    11.4120    21.9440 c3         1 9PB       0.167600
      4 C3          13.9750    13.3830    20.6910 c6         1 9PB       0.164300
      5 CBS          6.9280    10.1170    16.8220 ca         1 9PB      -0.088000
      6 CBT          7.7350    10.5000    15.7340 ca         1 9PB      -0.039000
      7 CBY          8.4230     9.5290    14.9820 ca         1 9PB      -0.097000
      8 CBX          9.2250     9.9160    13.8940 ca         1 9PB      -0.111000
      9 CBW          9.3410    11.2750    13.5540 ca         1 9PB      -0.107000
     10 CBV          8.6570    12.2480    14.3020 ca         1 9PB      -0.099000
     11 CBU          7.8560    11.8660    15.3940 ca         1 9PB      -0.031000
     12 CBP          7.1740    12.8370    16.1500 ca         1 9PB      -0.106000
     13 CBQ          6.3700    12.4490    17.2360 ca         1 9PB      -0.079000
     14 CBR          6.2390    11.0880    17.5750 ca         1 9PB      -0.079300
     15 CBN          5.3730    10.6700    18.7550 c3         1 9PB       0.205900
     16 OBO          6.1990    10.6450    19.9280 os         1 9PB      -0.442000
     17 CBL          6.5250    10.2760    22.2720 cc         1 9PB       0.193300
     18 CBH          7.7870     9.7670    22.2690 cd         1 9PB      -0.164000
     19 NBK          6.2500    10.8720    23.4730 nc         1 9PB      -0.343000
     20 NBJ          7.3130    10.7800    24.2350 nd         1 9PB      -0.187800
     21 NBI          8.2680    10.1010    23.5140 na         1 9PB       0.129800
     22 CAG          9.6550     9.8630    23.9930 c6         1 9PB       0.327300
     23 CAK         10.5780    11.0830    23.6660 c6         1 9PB       0.117300
     24 OBA         10.6270    11.3530    22.2460 oh         1 9PB      -0.722000
     25 OAY          9.6340     9.6140    25.4230 os         1 9PB      -0.438000
     26 CAI         10.9290     9.2960    25.9960 c6         1 9PB       0.144300
     27 CAJ         10.7260     8.9570    27.5090 c3         1 9PB       0.171600
     28 OBB          9.7820     7.8900    27.7300 oh         1 9PB      -0.705000
     29 CAH         11.9010    10.4960    25.7770 c6         1 9PB       0.140300
     30 OAZ         13.2140    10.2420    26.3120 oh         1 9PB      -0.698000
     31 CAL         12.0020    10.8110    24.2580 c6         1 9PB       0.140300
     32 O1          12.9320    11.9070    24.0530 os         1 9PB      -0.440000
     33 C1          13.5420    11.9910    22.7490 c6         1 9PB       0.386300
     34 C2          13.2640    13.3800    22.0820 c6         1 9PB       0.110300
     35 O2          11.8440    13.6750    21.9870 oh         1 9PB      -0.734000
     36 O5          14.9560    11.7780    22.8930 os         1 9PB      -0.447000
     37 O6          17.7940    12.3430    22.8600 oh         1 9PB      -0.712000
     38 O4          16.1280    13.0530    19.5650 oh         1 9PB      -0.698000
     39 O3          13.8090    14.6240    19.9570 os         1 9PB      -0.445000
     40 CAM         12.6420    14.7090    19.1140 c6         1 9PB       0.363300
     41 OBD         12.8490    13.8770    17.9580 os         1 9PB      -0.455000
     42 CAO         11.7100    13.8260    17.0540 c6         1 9PB       0.183300
     43 CAP         12.0450    12.8150    15.9060 c3         1 9PB       0.176600
     44 OBG         13.2730    13.1100    15.2060 oh         1 9PB      -0.709000
     45 CAN         11.3830    15.2610    16.5190 c6         1 9PB       0.147300
     46 OBE         10.2020    15.2860    15.6920 oh         1 9PB      -0.720000
     47 CAR         11.1900    16.2350    17.7190 c6         1 9PB       0.137300
     48 OBC         10.9680    17.5780    17.2570 oh         1 9PB      -0.663000
     49 CAQ         12.4310    16.1860    18.6510 c6         1 9PB       0.112300
     50 OBF         12.2740    17.1030    19.7620 oh         1 9PB      -0.726000
     51 H1          15.9290    13.8800    21.4710 h1         1 9PB       0.072700
     52 H2          15.2730    10.9050    21.0290 h1         1 9PB       0.047700
     53 H3          17.2220    10.3970    22.3620 h1         1 9PB       0.034200
     54 H4          17.7330    11.3890    20.9970 h1         1 9PB       0.034200
     55 H5          13.5450    12.5650    20.0920 h1         1 9PB       0.072700
     56 H7           8.3370     8.4750    15.2380 ha         1 9PB       0.111000
     57 H8           9.7550     9.1630    13.3150 ha         1 9PB       0.111000
     58 H9           9.9600    11.5730    12.7110 ha         1 9PB       0.111000
     59 H10          8.7540    13.2980    14.0350 ha         1 9PB       0.113000
     60 H11          7.2670    13.8910    15.8990 ha         1 9PB       0.114000
     61 H12          5.8490    13.2080    17.8160 ha         1 9PB       0.127000
     62 H13          4.5460    11.3830    18.8780 h1         1 9PB       0.027700
     63 H14          4.9410     9.6790    18.5630 h1         1 9PB       0.027700
     64 H15          4.7010    10.9460    21.3640 h1         1 9PB       0.033700
     65 H16          5.1110     9.2430    21.0460 h1         1 9PB       0.033700
     66 H17          8.3580     9.2570    21.5050 h4         1 9PB       0.169000
     67 H18         10.0140     8.9680    23.4650 h2         1 9PB       0.062700
     68 H19         10.1600    11.9560    24.1900 h1         1 9PB       0.078700
     69 H20         11.0420    12.2640    22.1420 ho         1 9PB       0.544000
     70 H21         11.3300     8.4020    25.4960 h1         1 9PB       0.064700
     71 H22         11.7010     8.6840    27.9360 h1         1 9PB       0.030700
     72 H23         10.3900     9.8690    28.0220 h1         1 9PB       0.030700
     73 H24          9.6750     7.7980    28.7060 ho         1 9PB       0.508000
     74 H25         11.4680    11.3770    26.2760 h1         1 9PB       0.060700
     75 H26         13.8060    10.8990    25.8730 ho         1 9PB       0.512000
     76 H27         12.4140     9.9150    23.7680 h1         1 9PB       0.065700
     77 H28         13.1370    11.2000    22.1000 h2         1 9PB       0.041700
     78 H29         13.7550    14.1370    22.7120 h1         1 9PB       0.072700
     79 H30         11.7490    14.6540    22.0920 ho         1 9PB       0.527000
     80 H31         18.7060    12.0130    23.0350 ho         1 9PB       0.505000
     81 H32         15.6570    13.7370    19.0300 ho         1 9PB       0.512000
     82 H33         11.7510    14.3690    19.6580 h2         1 9PB       0.044700
     83 H34         10.8400    13.4390    17.6050 h1         1 9PB       0.045700
     84 H35         11.2040    12.8010    15.2020 h1         1 9PB       0.034700
     85 H36         12.1030    11.8140    16.3530 h1         1 9PB       0.034700
     86 H37         13.4180    12.3800    14.5600 ho         1 9PB       0.501000
     87 H38         12.2510    15.6060    15.9370 h1         1 9PB       0.075700
     88 H39          9.9380    16.2370    15.6620 ho         1 9PB       0.524000
     89 H40         10.3190    15.8970    18.3010 h1         1 9PB       0.049700
     90 H41         11.1840    18.1450    18.0350 ho         1 9PB       0.463000
     91 H42         13.3140    16.4700    18.0580 h1         1 9PB       0.072700
     92 H43         13.0750    16.9900    20.3290 ho         1 9PB       0.518000
     93 CBM          5.5250    10.2550    21.1400 c3         1 9PB       0.147300
     94 H6           6.8370     9.0660    17.0860 ha         1 9PB       0.110000
@<TRIPOS>BOND
     1     1     2 1   
     2     1     4 1   
     3     1    38 1   
     4     1    51 1   
     5     2     3 1   
     6     2    36 1   
     7     2    52 1   
     8     3    37 1   
     9     3    53 1   
    10     3    54 1   
    11     4    34 1   
    12     4    39 1   
    13     4    55 1   
    14     5     6 ar  
    15     5    14 ar  
    16     5    94 1   
    17     6     7 ar  
    18     6    11 ar  
    19     7     8 ar  
    20     7    56 1   
    21     8     9 ar  
    22     8    57 1   
    23     9    10 ar  
    24     9    58 1   
    25    10    11 ar  
    26    10    59 1   
    27    11    12 ar  
    28    12    13 ar  
    29    12    60 1   
    30    13    14 ar  
    31    13    61 1   
    32    14    15 1   
    33    15    16 1   
    34    15    62 1   
    35    15    63 1   
    36    16    93 1   
    37    17    18 2   
    38    17    19 1   
    39    17    93 1   
    40    18    21 1   
    41    18    66 1   
    42    19    20 2   
    43    20    21 1   
    44    21    22 1   
    45    22    23 1   
    46    22    25 1   
    47    22    67 1   
    48    23    24 1   
    49    23    31 1   
    50    23    68 1   
    51    24    69 1   
    52    25    26 1   
    53    26    27 1   
    54    26    29 1   
    55    26    70 1   
    56    27    28 1   
    57    27    71 1   
    58    27    72 1   
    59    28    73 1   
    60    29    30 1   
    61    29    31 1   
    62    29    74 1   
    63    30    75 1   
    64    31    32 1   
    65    31    76 1   
    66    32    33 1   
    67    33    34 1   
    68    33    36 1   
    69    33    77 1   
    70    34    35 1   
    71    34    78 1   
    72    35    79 1   
    73    37    80 1   
    74    38    81 1   
    75    39    40 1   
    76    40    41 1   
    77    40    49 1   
    78    40    82 1   
    79    41    42 1   
    80    42    43 1   
    81    42    45 1   
    82    42    83 1   
    83    43    44 1   
    84    43    84 1   
    85    43    85 1   
    86    44    86 1   
    87    45    46 1   
    88    45    47 1   
    89    45    87 1   
    90    46    88 1   
    91    47    48 1   
    92    47    49 1   
    93    47    89 1   
    94    48    90 1   
    95    49    50 1   
    96    49    91 1   
    97    50    92 1   
    98    64    93 1   
    99    65    93 1   
@<TRIPOS>SUBSTRUCTURE
     1 9PB         1 TEMP              0 ****  ****    0 ROOT
