@<TRIPOS>MOLECULE
9PB
   94    99     1     0     0
SMALL
abcg2


@<TRIPOS>ATOM
      1 C4          16.0260    13.4560    21.6640 c6         1 9PB       0.143300
      2 C5          15.9580    12.1230    22.4270 c6         1 9PB       0.145300
      3 C6          17.2430    11.7600    23.1370 c3         1 9PB       0.167600
      4 C3          14.6790    13.7180    21.0000 c6         1 9PB       0.164300
      5 CBS          4.6250     8.7160    16.5550 ca         1 9PB      -0.088000
      6 CBT          4.6950     9.2560    15.2480 ca         1 9PB      -0.039000
      7 CBY          4.6800     8.4340    14.0970 ca         1 9PB      -0.097000
      8 CBX          4.7510     8.9850    12.8460 ca         1 9PB      -0.111000
      9 CBW          4.8410    10.3830    12.6880 ca         1 9PB      -0.107000
     10 CBV          4.8580    11.2030    13.7840 ca         1 9PB      -0.099000
     11 CBU          4.7870    10.6620    15.0880 ca         1 9PB      -0.031000
     12 CBP          4.8020    11.4780    16.2460 ca         1 9PB      -0.106000
     13 CBQ          4.7280    10.9260    17.4930 ca         1 9PB      -0.079000
     14 CBR          4.6340     9.5220    17.6610 ca         1 9PB      -0.079300
     15 CBN          4.5290     8.9450    19.0410 c3         1 9PB       0.205900
     16 OBO          5.6260     9.3880    19.8060 os         1 9PB      -0.442000
     17 CBL          6.6750     9.5530    21.9080 cc         1 9PB       0.193300
     18 CBH          7.8880     9.0220    22.2530 cd         1 9PB      -0.164000
     19 NBK          6.6320    10.8210    22.3820 nc         1 9PB      -0.343000
     20 NBJ          7.7320    11.0880    22.9860 nd         1 9PB      -0.187800
     21 NBI          8.5050    10.0140    22.9170 na         1 9PB       0.129800
     22 CAG          9.7950     9.9830    23.5570 c6         1 9PB       0.327300
     23 CAK         10.6290    11.2130    23.2150 c6         1 9PB       0.117300
     24 OBA         10.7950    11.2400    21.8270 oh         1 9PB      -0.722000
     25 OAY          9.5750     9.9030    24.9300 os         1 9PB      -0.438000
     26 CAI         10.7660     9.7220    25.6770 c6         1 9PB       0.144300
     27 CAJ         10.3700     9.5760    27.1300 c3         1 9PB       0.171600
     28 OBB          9.5980     8.4110    27.2800 oh         1 9PB      -0.705000
     29 CAH         11.7140    10.9130    25.4630 c6         1 9PB       0.140300
     30 OAZ         12.9520    10.6850    26.0870 oh         1 9PB      -0.698000
     31 CAL         11.9560    11.1010    23.9710 c6         1 9PB       0.140300
     32 O1          12.7040    12.2830    23.7820 os         1 9PB      -0.440000
     33 C1          13.6550    12.2900    22.7830 c6         1 9PB       0.386300
     34 C2          13.5560    13.6150    22.0280 c6         1 9PB       0.110300
     35 O2          12.2960    13.6850    21.3890 oh         1 9PB      -0.734000
     36 O5          14.9150    12.1700    23.3800 os         1 9PB      -0.447000
     37 O6          17.5970    12.7840    24.0350 oh         1 9PB      -0.712000
     38 O4          17.0130    13.4160    20.6670 oh         1 9PB      -0.698000
     39 O3          14.6990    15.0180    20.4420 os         1 9PB      -0.445000
     40 CAM         14.0880    15.1940    19.2160 c6         1 9PB       0.363300
     41 OBD         15.0080    14.8590    18.2090 os         1 9PB      -0.455000
     42 CAO         14.4550    14.9520    16.9110 c6         1 9PB       0.183300
     43 CAP         15.4460    14.3660    15.9290 c3         1 9PB       0.176600
     44 OBG         16.6220    15.1400    15.9220 oh         1 9PB      -0.709000
     45 CAN         14.0750    16.4070    16.6270 c6         1 9PB       0.147300
     46 OBE         13.4960    16.4570    15.3470 oh         1 9PB      -0.720000
     47 CAR         13.1080    16.8950    17.7000 c6         1 9PB       0.137300
     48 OBC         12.8530    18.2560    17.4500 oh         1 9PB      -0.663000
     49 CAQ         13.6930    16.6630    19.0870 c6         1 9PB       0.112300
     50 OBF         12.7190    17.0270    20.0320 oh         1 9PB      -0.726000
     51 H1          16.2130    14.2630    22.3850 h1         1 9PB       0.072700
     52 H2          15.7650    11.3210    21.6950 h1         1 9PB       0.047700
     53 H3          17.0960    10.7990    23.6470 h1         1 9PB       0.034200
     54 H4          18.0140    11.5930    22.3750 h1         1 9PB       0.034200
     55 H5          14.5210    12.9600    20.2190 h1         1 9PB       0.072700
     56 H7           4.6110     7.3590    14.2210 ha         1 9PB       0.111000
     57 H8           4.7380     8.3470    11.9720 ha         1 9PB       0.111000
     58 H9           4.8950    10.8060    11.6930 ha         1 9PB       0.111000
     59 H10          4.9270    12.2770    13.6650 ha         1 9PB       0.113000
     60 H11          4.8710    12.5530    16.1280 ha         1 9PB       0.114000
     61 H12          4.7360    11.5680    18.3650 ha         1 9PB       0.127000
     62 H13          3.5870     9.2670    19.5080 h1         1 9PB       0.027700
     63 H14          4.4980     7.8480    18.9900 h1         1 9PB       0.027700
     64 H15          4.6030     9.2260    21.5980 h1         1 9PB       0.033700
     65 H16          5.6300     7.8490    21.1970 h1         1 9PB       0.033700
     66 H17          8.3370     8.0570    22.0870 h4         1 9PB       0.169000
     67 H18         10.3030     9.0850    23.1790 h2         1 9PB       0.062700
     68 H19         10.1010    12.1050    23.5820 h1         1 9PB       0.078700
     69 H20         11.1630    12.1020    21.5730 ho         1 9PB       0.544000
     70 H21         11.2800     8.8050    25.3460 h1         1 9PB       0.064700
     71 H22         11.2870     9.5340    27.7300 h1         1 9PB       0.030700
     72 H23          9.8230    10.4770    27.4400 h1         1 9PB       0.030700
     73 H24          9.3590     8.3300    28.2080 ho         1 9PB       0.508000
     74 H25         11.2260    11.8180    25.8520 h1         1 9PB       0.060700
     75 H26         12.9460    11.0950    26.9570 ho         1 9PB       0.512000
     76 H27         12.5080    10.2280    23.5920 h1         1 9PB       0.065700
     77 H28         13.5020    11.4570    22.0750 h2         1 9PB       0.041700
     78 H29         13.6740    14.4300    22.7530 h1         1 9PB       0.072700
     79 H30         11.8210    14.4610    21.7000 ho         1 9PB       0.527000
     80 H31         18.4680    12.5860    24.3890 ho         1 9PB       0.505000
     81 H32         17.8530    13.6860    21.0500 ho         1 9PB       0.512000
     82 H33         13.1890    14.5630    19.1200 h2         1 9PB       0.044700
     83 H34         13.5410    14.3390    16.8450 h1         1 9PB       0.045700
     84 H35         14.9690    14.3290    14.9440 h1         1 9PB       0.034700
     85 H36         15.6440    13.3270    16.2230 h1         1 9PB       0.034700
     86 H37         17.1890    14.8170    15.2160 ho         1 9PB       0.501000
     87 H38         14.9840    17.0240    16.6750 h1         1 9PB       0.075700
     88 H39         13.2340    17.3670    15.1720 ho         1 9PB       0.524000
     89 H40         12.1820    16.3020    17.6160 h1         1 9PB       0.049700
     90 H41         12.1250    18.5420    18.0100 ho         1 9PB       0.463000
     91 H42         14.6050    17.2710    19.1910 h1         1 9PB       0.072700
     92 H43         13.1270    17.0400    20.9040 ho         1 9PB       0.518000
     93 CBM          5.5600     8.9420    21.1420 c3         1 9PB       0.147300
     94 H6           4.5620     7.6390    16.6690 ha         1 9PB       0.110000
@<TRIPOS>BOND
     1     1     2 1   
     2     1     4 1   
     3     1    38 1   
     4     1    51 1   
     5     2     3 1   
     6     2    36 1   
     7     2    52 1   
     8     3    37 1   
     9     3    53 1   
    10     3    54 1   
    11     4    34 1   
    12     4    39 1   
    13     4    55 1   
    14     5     6 ar  
    15     5    14 ar  
    16     5    94 1   
    17     6     7 ar  
    18     6    11 ar  
    19     7     8 ar  
    20     7    56 1   
    21     8     9 ar  
    22     8    57 1   
    23     9    10 ar  
    24     9    58 1   
    25    10    11 ar  
    26    10    59 1   
    27    11    12 ar  
    28    12    13 ar  
    29    12    60 1   
    30    13    14 ar  
    31    13    61 1   
    32    14    15 1   
    33    15    16 1   
    34    15    62 1   
    35    15    63 1   
    36    16    93 1   
    37    17    18 2   
    38    17    19 1   
    39    17    93 1   
    40    18    21 1   
    41    18    66 1   
    42    19    20 2   
    43    20    21 1   
    44    21    22 1   
    45    22    23 1   
    46    22    25 1   
    47    22    67 1   
    48    23    24 1   
    49    23    31 1   
    50    23    68 1   
    51    24    69 1   
    52    25    26 1   
    53    26    27 1   
    54    26    29 1   
    55    26    70 1   
    56    27    28 1   
    57    27    71 1   
    58    27    72 1   
    59    28    73 1   
    60    29    30 1   
    61    29    31 1   
    62    29    74 1   
    63    30    75 1   
    64    31    32 1   
    65    31    76 1   
    66    32    33 1   
    67    33    34 1   
    68    33    36 1   
    69    33    77 1   
    70    34    35 1   
    71    34    78 1   
    72    35    79 1   
    73    37    80 1   
    74    38    81 1   
    75    39    40 1   
    76    40    41 1   
    77    40    49 1   
    78    40    82 1   
    79    41    42 1   
    80    42    43 1   
    81    42    45 1   
    82    42    83 1   
    83    43    44 1   
    84    43    84 1   
    85    43    85 1   
    86    44    86 1   
    87    45    46 1   
    88    45    47 1   
    89    45    87 1   
    90    46    88 1   
    91    47    48 1   
    92    47    49 1   
    93    47    89 1   
    94    48    90 1   
    95    49    50 1   
    96    49    91 1   
    97    50    92 1   
    98    64    93 1   
    99    65    93 1   
@<TRIPOS>SUBSTRUCTURE
     1 9PB         1 TEMP              0 ****  ****    0 ROOT
