@<TRIPOS>MOLECULE
9PC
   31    33     1     0     0
SMALL
bcc


@<TRIPOS>ATOM
      1 C11          5.7270    -0.0150    -0.0520 ca         1 9PC      -0.102900
      2 C12          4.8010    -0.6820     0.7250 ca         1 9PC      -0.029000
      3 N           -5.5620     0.9230    -2.1830 nt         1 9PC      -0.661000
      4 C13         -3.1910     0.3330    -0.2460 ca         1 9PC       0.161900
      5 C1          -4.5590     0.2170    -0.1350 ca         1 9PC      -0.213600
      6 C2          -5.0510    -0.7390     0.7430 ca         1 9PC       0.168900
      7 C3          -4.2220    -1.5570     1.4710 ca         1 9PC      -0.154000
      8 F1          -2.6820     1.2530    -1.0700 f          1 9PC      -0.116900
      9 C           -5.4900     1.1430    -0.8700 c          1 9PC       0.702700
     10 O           -6.1080     2.0030    -0.2700 o          1 9PC      -0.571100
     11 C5          -2.3100    -0.4670     0.4800 ca         1 9PC       0.082100
     12 C4          -2.8440    -1.4150     1.3400 ca         1 9PC      -0.151000
     13 O1          -0.9990    -0.2380     0.2780 os         1 9PC      -0.312900
     14 C6          -0.0650    -1.0210     0.9790 c3         1 9PC       0.118100
     15 C7           1.2880    -0.5840     0.5260 cc         1 9PC       0.360200
     16 S            1.4350     0.5320    -0.8040 ss         1 9PC      -0.059500
     17 C9           3.1590     0.4140    -0.6290 ca         1 9PC       0.406600
     18 N2           4.0450     1.0520    -1.3670 nb         1 9PC      -0.614000
     19 C10          5.3170     0.8390    -1.0820 ca         1 9PC       0.426200
     20 CL           7.4150    -0.2220     0.2360 cl         1 9PC      -0.081400
     21 C8           3.4620    -0.4600     0.4250 ca         1 9PC      -0.013900
     22 N1           2.3780    -1.0070     1.0580 nd         1 9PC      -0.523100
     23 H1           5.0940    -1.3440     1.5290 ha         1 9PC       0.170000
     24 H2          -5.0640     0.1700    -2.6260 hn         1 9PC       0.321000
     25 H3          -6.1620     1.4890    -2.7630 hn         1 9PC       0.321000
     26 H4          -4.6320    -2.3020     2.1390 ha         1 9PC       0.161000
     27 H5          -2.2010    -2.0600     1.9220 ha         1 9PC       0.147000
     28 H6          -0.1460    -0.8830     2.0630 h1         1 9PC       0.069700
     29 H7          -0.1870    -2.0880     0.7620 h1         1 9PC       0.069700
     30 H8           6.0540     1.3570    -1.6830 h4         1 9PC       0.041100
     31 F           -6.3800    -0.8660     0.8550 f          1 9PC      -0.122900
@<TRIPOS>BOND
     1     1     2 ar  
     2     1    19 ar  
     3     1    20 1   
     4     2    21 ar  
     5     2    23 1   
     6     3     9 1   
     7     3    24 1   
     8     3    25 1   
     9     4     5 ar  
    10     4     8 1   
    11     4    11 ar  
    12     5     6 ar  
    13     5     9 1   
    14     6     7 ar  
    15     6    31 1   
    16     7    12 ar  
    17     7    26 1   
    18     9    10 2   
    19    11    12 ar  
    20    11    13 1   
    21    12    27 1   
    22    13    14 1   
    23    14    15 1   
    24    14    28 1   
    25    14    29 1   
    26    15    16 1   
    27    15    22 2   
    28    16    17 1   
    29    17    18 ar  
    30    17    21 ar  
    31    18    19 ar  
    32    19    30 1   
    33    21    22 1   
@<TRIPOS>SUBSTRUCTURE
     1 9PC         1 TEMP              0 ****  ****    0 ROOT
