@<TRIPOS>MOLECULE
9PC
   31    33     1     0     0
SMALL
No Charge or Current Charge


@<TRIPOS>ATOM
      1 C11          5.6470     0.5480     0.0730 ca         1 9PC       0.054000
      2 C12          4.5730     0.3330     0.9580 ca         1 9PC      -0.011000
      3 N           -5.2020     1.8910    -1.7710 nt         1 9PC      -0.594000
      4 C13         -3.2610     0.2710    -0.2410 ca         1 9PC       0.197000
      5 C1          -4.6700     0.1930    -0.0570 ca         1 9PC      -0.213600
      6 C2          -5.1620    -0.8270     0.7940 ca         1 9PC       0.204000
      7 C3          -4.2920    -1.7280     1.4260 ca         1 9PC      -0.136000
      8 F1          -2.7100     1.2360    -1.0150 f          1 9PC      -0.152000
      9 C           -5.6320     1.1530    -0.7280 c          1 9PC       0.635700
     10 O           -6.7830     1.3140    -0.3580 o          1 9PC      -0.571100
     11 C5          -2.3830    -0.6350     0.3970 ca         1 9PC       0.082100
     12 C4          -2.9060    -1.6400     1.2350 ca         1 9PC      -0.133000
     13 O1          -1.0220    -0.5010     0.1790 os         1 9PC      -0.336100
     14 C6          -0.0460    -1.3790     0.7810 c3         1 9PC       0.141300
     15 C7           1.3340    -0.9670     0.3320 cc         1 9PC       0.360200
     16 S            1.7730    -1.1530    -1.3840 ss         1 9PC      -0.059500
     17 C9           3.3290    -0.4930    -0.9260 ca         1 9PC       0.341300
     18 N2           4.3390    -0.3000    -1.8040 nb         1 9PC      -0.614000
     19 C10          5.4880     0.2200    -1.2940 ca         1 9PC       0.360900
     20 Cl           7.1650     1.2190     0.6670 cl         1 9PC      -0.173000
     21 C8           3.3880    -0.2030     0.4300 ca         1 9PC       0.051400
     22 N1           2.2480    -0.4700     1.1820 nd         1 9PC      -0.523100
     23 H1           4.6590     0.5730     2.0140 ha         1 9PC       0.152000
     24 H2          -4.2520     1.7990    -2.0970 hn         1 9PC       0.321000
     25 H3          -5.8390     2.5380    -2.2130 hn         1 9PC       0.321000
     26 H4          -4.7010    -2.5040     2.0690 ha         1 9PC       0.143000
     27 H5          -2.2620    -2.3550     1.7410 ha         1 9PC       0.129000
     28 H6          -0.0980    -1.3250     1.8760 h1         1 9PC       0.069700
     29 H7          -0.2180    -2.4190     0.4770 h1         1 9PC       0.069700
     30 H8           6.3030     0.3770    -1.9990 h4         1 9PC       0.041100
     31 F           -6.4870    -0.9900     1.0080 f          1 9PC      -0.158000
@<TRIPOS>BOND
     1     1     2 ar  
     2     1    19 ar  
     3     1    20 1   
     4     2    21 ar  
     5     2    23 1   
     6     3     9 1   
     7     3    24 1   
     8     3    25 1   
     9     4     5 ar  
    10     4     8 1   
    11     4    11 ar  
    12     5     6 ar  
    13     5     9 1   
    14     6     7 ar  
    15     6    31 1   
    16     7    12 ar  
    17     7    26 1   
    18     9    10 2   
    19    11    12 ar  
    20    11    13 1   
    21    12    27 1   
    22    13    14 1   
    23    14    15 1   
    24    14    28 1   
    25    14    29 1   
    26    15    16 1   
    27    15    22 2   
    28    16    17 1   
    29    17    18 ar  
    30    17    21 ar  
    31    18    19 ar  
    32    19    30 1   
    33    21    22 1   
@<TRIPOS>SUBSTRUCTURE
     1 9PC         1 TEMP              0 ****  ****    0 ROOT
