@<TRIPOS>MOLECULE
9PD
   47    46     1     0     0
SMALL
abcg2


@<TRIPOS>ATOM
      1 C01        -14.3860   -28.4930   -24.7020 c3         1 9PD      -0.089100
      2 C02        -14.7480   -29.8970   -25.1720 c3         1 9PD      -0.073400
      3 C03        -13.8130   -30.9850   -24.6510 c3         1 9PD      -0.073400
      4 C04        -13.8670   -31.1890   -23.1410 c3         1 9PD      -0.076400
      5 C05        -12.9730   -32.3260   -22.6610 c3         1 9PD      -0.077400
      6 C06        -13.0050   -32.5080   -21.1460 c3         1 9PD      -0.073400
      7 C07        -12.1600   -33.6790   -20.6260 c3         1 9PD      -0.071400
      8 C08        -12.9270   -34.9850   -20.4260 c3         1 9PD      -0.069400
      9 C09        -13.5710   -35.5590   -21.6810 c3         1 9PD      -0.074400
     10 C10        -14.2360   -36.9080   -21.4350 c3         1 9PD      -0.082400
     11 C11        -15.1250   -37.3770   -22.5850 c3         1 9PD      -0.043400
     12 C12        -14.4510   -37.4850   -23.9550 c3         1 9PD      -0.433400
     13 P13        -13.0290   -38.6200   -24.0470 p5         1 9PD       1.246000
     14 C14        -12.7720   -38.8820   -25.8240 c3         1 9PD      -0.467600
     15 C15        -13.6320   -40.2130   -23.4260 c3         1 9PD      -0.467600
     16 O16        -11.7870   -38.1360   -23.3420 o          1 9PD      -0.539000
     17 H1         -15.0450   -27.7460   -25.1460 hc         1 9PD       0.031033
     18 H2         -14.4660   -28.3910   -23.6190 hc         1 9PD       0.031033
     19 H3         -13.3630   -28.2380   -24.9830 hc         1 9PD       0.031033
     20 H4         -14.7400   -29.9190   -26.2650 hc         1 9PD       0.035700
     21 H5         -15.7750   -30.1300   -24.8730 hc         1 9PD       0.035700
     22 H6         -14.0620   -31.9320   -25.1420 hc         1 9PD       0.035700
     23 H7         -12.7850   -30.7510   -24.9500 hc         1 9PD       0.035700
     24 H8         -13.5790   -30.2660   -22.6270 hc         1 9PD       0.036700
     25 H9         -14.9010   -31.3920   -22.8410 hc         1 9PD       0.036700
     26 H10        -13.2680   -33.2530   -23.1620 hc         1 9PD       0.038200
     27 H11        -11.9410   -32.1330   -22.9740 hc         1 9PD       0.038200
     28 H12        -12.6600   -31.5770   -20.6870 hc         1 9PD       0.035200
     29 H13        -14.0430   -32.6320   -20.8150 hc         1 9PD       0.035200
     30 H14        -11.3190   -33.8500   -21.3070 hc         1 9PD       0.040700
     31 H15        -11.7140   -33.4040   -19.6670 hc         1 9PD       0.040700
     32 H16        -13.7020   -34.8270   -19.6670 hc         1 9PD       0.036200
     33 H17        -12.2440   -35.7300   -20.0040 hc         1 9PD       0.036200
     34 H18        -12.8110   -35.6650   -22.4610 hc         1 9PD       0.044200
     35 H19        -14.3180   -34.8570   -22.0680 hc         1 9PD       0.044200
     36 H20        -14.8610   -36.8440   -20.5380 hc         1 9PD       0.044200
     37 H21        -13.4680   -37.6550   -21.2180 hc         1 9PD       0.044200
     38 H22        -15.9620   -36.6810   -22.6860 hc         1 9PD       0.037700
     39 H23        -15.5720   -38.3410   -22.3280 hc         1 9PD       0.037700
     40 H24        -14.0940   -36.5100   -24.2970 hc         1 9PD       0.071700
     41 H25        -15.1860   -37.8180   -24.6930 hc         1 9PD       0.071700
     42 H26        -11.9590   -39.5920   -25.9750 hc         1 9PD       0.076867
     43 H27        -13.6690   -39.2690   -26.3060 hc         1 9PD       0.076867
     44 H28        -12.5010   -37.9390   -26.2990 hc         1 9PD       0.076867
     45 H29        -13.8400   -40.1490   -22.3580 hc         1 9PD       0.076867
     46 H30        -14.5420   -40.5170   -23.9420 hc         1 9PD       0.076867
     47 H31        -12.8700   -40.9760   -23.5810 hc         1 9PD       0.076867
@<TRIPOS>BOND
     1     1     2 1   
     2     1    17 1   
     3     1    18 1   
     4     1    19 1   
     5     2     3 1   
     6     2    20 1   
     7     2    21 1   
     8     3     4 1   
     9     3    22 1   
    10     3    23 1   
    11     4     5 1   
    12     4    24 1   
    13     4    25 1   
    14     5     6 1   
    15     5    26 1   
    16     5    27 1   
    17     6     7 1   
    18     6    28 1   
    19     6    29 1   
    20     7     8 1   
    21     7    30 1   
    22     7    31 1   
    23     8     9 1   
    24     8    32 1   
    25     8    33 1   
    26     9    10 1   
    27     9    34 1   
    28     9    35 1   
    29    10    11 1   
    30    10    36 1   
    31    10    37 1   
    32    11    12 1   
    33    11    38 1   
    34    11    39 1   
    35    12    13 1   
    36    12    40 1   
    37    12    41 1   
    38    13    14 1   
    39    13    15 1   
    40    13    16 2   
    41    14    42 1   
    42    14    43 1   
    43    14    44 1   
    44    15    45 1   
    45    15    46 1   
    46    15    47 1   
@<TRIPOS>SUBSTRUCTURE
     1 9PD         1 TEMP              0 ****  ****    0 ROOT
