@<TRIPOS>MOLECULE
9PD
   47    46     1     0     0
SMALL
No Charge or Current Charge


@<TRIPOS>ATOM
      1 C01        -14.3030   -28.2420   -24.6460 c3         1 9PD      -0.089100
      2 C02        -14.8440   -29.6250   -25.0650 c3         1 9PD      -0.073400
      3 C03        -13.9620   -30.8170   -24.6240 c3         1 9PD      -0.073400
      4 C04        -13.8710   -31.0120   -23.0920 c3         1 9PD      -0.076400
      5 C05        -13.0480   -32.2560   -22.6920 c3         1 9PD      -0.077400
      6 C06        -12.9530   -32.4470   -21.1580 c3         1 9PD      -0.073400
      7 C07        -12.1420   -33.6910   -20.7090 c3         1 9PD      -0.071400
      8 C08        -12.9600   -34.9910   -20.4900 c3         1 9PD      -0.069400
      9 C09        -13.6860   -35.5380   -21.7390 c3         1 9PD      -0.074400
     10 C10        -14.3220   -36.9280   -21.5050 c3         1 9PD      -0.082400
     11 C11        -15.1510   -37.4630   -22.6980 c3         1 9PD      -0.043400
     12 C12        -14.3700   -37.6560   -24.0260 c3         1 9PD      -0.433400
     13 P13        -12.9490   -38.8320   -24.0230 p5         1 9PD       1.246000
     14 C14        -12.6270   -39.2100   -25.7830 c3         1 9PD      -0.467600
     15 C15        -13.5780   -40.3940   -23.3070 c3         1 9PD      -0.467600
     16 O16        -11.7440   -38.3110   -23.3180 o          1 9PD      -0.539000
     17 H1         -14.9320   -27.4460   -25.0640 hc         1 9PD       0.031033
     18 H2         -14.3010   -28.1310   -23.5560 hc         1 9PD       0.031033
     19 H3         -13.2800   -28.0970   -25.0140 hc         1 9PD       0.031033
     20 H4         -14.9350   -29.6460   -26.1580 hc         1 9PD       0.035700
     21 H5         -15.8570   -29.7530   -24.6640 hc         1 9PD       0.035700
     22 H6         -14.3700   -31.7320   -25.0720 hc         1 9PD       0.035700
     23 H7         -12.9520   -30.6900   -25.0350 hc         1 9PD       0.035700
     24 H8         -13.4150   -30.1250   -22.6350 hc         1 9PD       0.036700
     25 H9         -14.8840   -31.1030   -22.6800 hc         1 9PD       0.036700
     26 H10        -13.4950   -33.1400   -23.1580 hc         1 9PD       0.038200
     27 H11        -12.0360   -32.1620   -23.1030 hc         1 9PD       0.038200
     28 H12        -12.4710   -31.5560   -20.7370 hc         1 9PD       0.035200
     29 H13        -13.9590   -32.4880   -20.7220 hc         1 9PD       0.035200
     30 H14        -11.3300   -33.8820   -21.4220 hc         1 9PD       0.040700
     31 H15        -11.6540   -33.4490   -19.7570 hc         1 9PD       0.040700
     32 H16        -13.6950   -34.8200   -19.6940 hc         1 9PD       0.036200
     33 H17        -12.2740   -35.7620   -20.1170 hc         1 9PD       0.036200
     34 H18        -12.9710   -35.5950   -22.5690 hc         1 9PD       0.044200
     35 H19        -14.4780   -34.8400   -22.0320 hc         1 9PD       0.044200
     36 H20        -14.9840   -36.8670   -20.6310 hc         1 9PD       0.044200
     37 H21        -13.5390   -37.6500   -21.2440 hc         1 9PD       0.044200
     38 H22        -15.9850   -36.7730   -22.8810 hc         1 9PD       0.037700
     39 H23        -15.6070   -38.4170   -22.4080 hc         1 9PD       0.037700
     40 H24        -13.9820   -36.6980   -24.3890 hc         1 9PD       0.071700
     41 H25        -15.0560   -38.0310   -24.7930 hc         1 9PD       0.071700
     42 H26        -11.8070   -39.9330   -25.8510 hc         1 9PD       0.076867
     43 H27        -13.5300   -39.6330   -26.2370 hc         1 9PD       0.076867
     44 H28        -12.3500   -38.2870   -26.3030 hc         1 9PD       0.076867
     45 H29        -13.7510   -40.2560   -22.2350 hc         1 9PD       0.076867
     46 H30        -14.5170   -40.6670   -23.8010 hc         1 9PD       0.076867
     47 H31        -12.8350   -41.1840   -23.4610 hc         1 9PD       0.076867
@<TRIPOS>BOND
     1     1     2 1   
     2     1    17 1   
     3     1    18 1   
     4     1    19 1   
     5     2     3 1   
     6     2    20 1   
     7     2    21 1   
     8     3     4 1   
     9     3    22 1   
    10     3    23 1   
    11     4     5 1   
    12     4    24 1   
    13     4    25 1   
    14     5     6 1   
    15     5    26 1   
    16     5    27 1   
    17     6     7 1   
    18     6    28 1   
    19     6    29 1   
    20     7     8 1   
    21     7    30 1   
    22     7    31 1   
    23     8     9 1   
    24     8    32 1   
    25     8    33 1   
    26     9    10 1   
    27     9    34 1   
    28     9    35 1   
    29    10    11 1   
    30    10    36 1   
    31    10    37 1   
    32    11    12 1   
    33    11    38 1   
    34    11    39 1   
    35    12    13 1   
    36    12    40 1   
    37    12    41 1   
    38    13    14 1   
    39    13    15 1   
    40    13    16 2   
    41    14    42 1   
    42    14    43 1   
    43    14    44 1   
    44    15    45 1   
    45    15    46 1   
    46    15    47 1   
@<TRIPOS>SUBSTRUCTURE
     1 9PD         1 TEMP              0 ****  ****    0 ROOT
