@<TRIPOS>MOLECULE
9PE
   99    98     1     0     0
SMALL
bcc


@<TRIPOS>ATOM
      1 P           -6.5510     2.2270    -1.4780 p5         1 9PE       1.403800
      2 N           -7.9770     2.8640     2.2970 n8         1 9PE      -0.881800
      3 O11         -5.1000     2.0260    -0.7460 os         1 9PE      -0.545200
      4 O12         -6.8490     3.6900    -1.6310 o          1 9PE      -0.822500
      5 O13         -7.5360     1.5830    -0.3390 os         1 9PE      -0.601200
      6 O14         -6.5150     1.3210    -2.6690 o          1 9PE      -0.822500
      7 C11         -8.7540     2.1750     0.0610 c3         1 9PE       0.216400
      8 C12         -8.9460     2.0700     1.5600 c3         1 9PE       0.126800
      9 C1          -4.8430     2.6150     0.5080 c3         1 9PE       0.191400
     10 C2          -4.3000     1.6010     1.4990 c3         1 9PE       0.136100
     11 C3          -5.2560     0.4900     1.8680 c3         1 9PE       0.148400
     12 O31         -5.4700    -0.3500     0.7400 os         1 9PE      -0.376900
     13 O32         -7.2530    -1.2880     1.6980 o          1 9PE      -0.588000
     14 C31         -6.5370    -1.1360     0.7380 c          1 9PE       0.667100
     15 C32         -6.7220    -1.8020    -0.5970 c3         1 9PE      -0.149400
     16 C33         -7.8250    -2.8490    -0.6100 c3         1 9PE      -0.059400
     17 C34         -8.0480    -3.4280    -2.0010 c3         1 9PE      -0.079400
     18 C35         -9.1060    -4.5230    -2.0240 c3         1 9PE      -0.074400
     19 C36         -9.3920    -5.0590    -3.4210 c3         1 9PE      -0.076400
     20 C37        -10.4330    -6.1700    -3.4280 c3         1 9PE      -0.086100
     21 O21         -3.0990     0.9870     1.0080 os         1 9PE      -0.393900
     22 O22         -1.8020     2.6070     1.8420 o          1 9PE      -0.569000
     23 C21         -1.9290     1.5750     1.2300 c          1 9PE       0.649100
     24 C22         -0.8000     0.7980     0.6100 c3         1 9PE      -0.142400
     25 C23          0.5780     1.2540     1.0610 c3         1 9PE      -0.066400
     26 C24          1.6910     0.4620     0.3870 c3         1 9PE      -0.076400
     27 C25          3.0800     0.8890     0.8440 c3         1 9PE      -0.074400
     28 C26          4.2020     0.1130     0.1670 c3         1 9PE      -0.074400
     29 C27          5.5900     0.5370     0.6320 c3         1 9PE      -0.074400
     30 C28          6.7150    -0.2330    -0.0470 c3         1 9PE      -0.074400
     31 C29          8.1020     0.1920     0.4210 c3         1 9PE      -0.074400
     32 C2A          9.2290    -0.5740    -0.2600 c3         1 9PE      -0.074400
     33 C2B         10.6150    -0.1470     0.2080 c3         1 9PE      -0.074400
     34 C2C         11.7430    -0.9080    -0.4770 c3         1 9PE      -0.074400
     35 C2D         13.1290    -0.4780    -0.0120 c3         1 9PE      -0.074400
     36 C2E         14.2570    -1.2340    -0.7020 c3         1 9PE      -0.074400
     37 C2F         15.6440    -0.8030    -0.2410 c3         1 9PE      -0.074400
     38 C2G         16.7710    -1.5550    -0.9380 c3         1 9PE      -0.075400
     39 C2H         18.1590    -1.1240    -0.4810 c3         1 9PE      -0.075400
     40 C2I         19.2760    -1.8810    -1.1870 c3         1 9PE      -0.088100
     41 HN          -8.1450     3.8480     2.1270 hn         1 9PE       0.326300
     42 HNA         -8.1140     2.7260     3.2890 hn         1 9PE       0.326300
     43 H11         -8.8020     3.2260    -0.2420 h1         1 9PE       0.023200
     44 H11A        -9.5880     1.6610    -0.4290 h1         1 9PE       0.023200
     45 H12         -8.8430     1.0260     1.8620 h1         1 9PE       0.025200
     46 H12A        -9.9900     2.3530     1.7630 h1         1 9PE       0.025200
     47 H1          -4.1130     3.4220     0.3890 h1         1 9PE       0.038700
     48 H1A         -5.7370     3.0520     0.9660 h1         1 9PE       0.038700
     49 H2          -4.0920     2.1440     2.4260 h1         1 9PE       0.050700
     50 H3          -4.8390    -0.0960     2.6930 h1         1 9PE       0.053200
     51 H3A         -6.1880     0.9480     2.2050 h1         1 9PE       0.053200
     52 H32         -6.9230    -1.0110    -1.3270 hc         1 9PE       0.096200
     53 H32A        -5.7690    -2.2450    -0.9020 hc         1 9PE       0.096200
     54 H33         -7.5780    -3.6560     0.0860 hc         1 9PE       0.040200
     55 H33A        -8.7590    -2.4080    -0.2520 hc         1 9PE       0.040200
     56 H34         -8.3420    -2.6220    -2.6830 hc         1 9PE       0.045200
     57 H34A        -7.1060    -3.8260    -2.3920 hc         1 9PE       0.045200
     58 H35         -8.7860    -5.3480    -1.3770 hc         1 9PE       0.031700
     59 H35A       -10.0360    -4.1410    -1.5880 hc         1 9PE       0.031700
     60 H36         -9.7270    -4.2360    -4.0600 hc         1 9PE       0.038200
     61 H36A        -8.4620    -5.4270    -3.8660 hc         1 9PE       0.038200
     62 H37        -11.3810    -5.8260    -3.0100 hc         1 9PE       0.025367
     63 H37A       -10.6290    -6.5300    -4.4390 hc         1 9PE       0.025367
     64 H37B       -10.1030    -7.0230    -2.8330 hc         1 9PE       0.025367
     65 H22         -0.9430    -0.2660     0.8200 hc         1 9PE       0.073200
     66 H22A        -0.8940     0.8950    -0.4780 hc         1 9PE       0.073200
     67 H23          0.7070     2.3170     0.8440 hc         1 9PE       0.048700
     68 H23A         0.6640     1.1470     2.1470 hc         1 9PE       0.048700
     69 H24          1.5560    -0.6070     0.5880 hc         1 9PE       0.037700
     70 H24A         1.6130     0.5780    -0.7000 hc         1 9PE       0.037700
     71 H25          3.2100     1.9590     0.6520 hc         1 9PE       0.037200
     72 H25A         3.1570     0.7650     1.9300 hc         1 9PE       0.037200
     73 H26          4.0690    -0.9580     0.3540 hc         1 9PE       0.036700
     74 H26A         4.1280     0.2410    -0.9190 hc         1 9PE       0.036700
     75 H27          5.7200     1.6090     0.4490 hc         1 9PE       0.036700
     76 H27A         5.6640     0.4060     1.7170 hc         1 9PE       0.036700
     77 H28          6.5850    -1.3050     0.1360 hc         1 9PE       0.037200
     78 H28A         6.6420    -0.1000    -1.1320 hc         1 9PE       0.037200
     79 H29          8.2300     1.2650     0.2410 hc         1 9PE       0.036200
     80 H29A         8.1760     0.0570     1.5060 hc         1 9PE       0.036200
     81 H2A          9.1010    -1.6470    -0.0800 hc         1 9PE       0.037200
     82 H2AA         9.1550    -0.4390    -1.3450 hc         1 9PE       0.037200
     83 H2B         10.7410     0.9270     0.0300 hc         1 9PE       0.036700
     84 H2BA        10.6910    -0.2840     1.2920 hc         1 9PE       0.036700
     85 H2C         11.6190    -1.9820    -0.2990 hc         1 9PE       0.036700
     86 H2CA        11.6660    -0.7710    -1.5610 hc         1 9PE       0.036700
     87 H2D         13.2520     0.5960    -0.1860 hc         1 9PE       0.036700
     88 H2DA        13.2080    -0.6190     1.0720 hc         1 9PE       0.036700
     89 H2E         14.1360    -2.3090    -0.5270 hc         1 9PE       0.036700
     90 H2EA        14.1760    -1.0950    -1.7860 hc         1 9PE       0.036700
     91 H2F         15.7640     0.2720    -0.4140 hc         1 9PE       0.036700
     92 H2FA        15.7270    -0.9460     0.8420 hc         1 9PE       0.036700
     93 H2G         16.6520    -2.6310    -0.7650 hc         1 9PE       0.036700
     94 H2GA        16.6860    -1.4140    -2.0210 hc         1 9PE       0.036700
     95 H2H         18.2770    -0.0500    -0.6530 hc         1 9PE       0.036200
     96 H2HA        18.2440    -1.2680     0.6000 hc         1 9PE       0.036200
     97 H2I         19.2000    -2.9550    -1.0050 hc         1 9PE       0.030367
     98 H2IA        19.2330    -1.7290    -2.2670 hc         1 9PE       0.030367
     99 H2IB        20.2590    -1.5570    -0.8460 hc         1 9PE       0.030367
@<TRIPOS>BOND
     1     1     3 1   
     2     1     4 1   
     3     1     5 1   
     4     1     6 1   
     5     2     8 1   
     6     2    41 1   
     7     2    42 1   
     8     3     9 1   
     9     5     7 1   
    10     7     8 1   
    11     7    43 1   
    12     7    44 1   
    13     8    45 1   
    14     8    46 1   
    15     9    10 1   
    16     9    47 1   
    17     9    48 1   
    18    10    11 1   
    19    10    21 1   
    20    10    49 1   
    21    11    12 1   
    22    11    50 1   
    23    11    51 1   
    24    12    14 1   
    25    13    14 2   
    26    14    15 1   
    27    15    16 1   
    28    15    52 1   
    29    15    53 1   
    30    16    17 1   
    31    16    54 1   
    32    16    55 1   
    33    17    18 1   
    34    17    56 1   
    35    17    57 1   
    36    18    19 1   
    37    18    58 1   
    38    18    59 1   
    39    19    20 1   
    40    19    60 1   
    41    19    61 1   
    42    20    62 1   
    43    20    63 1   
    44    20    64 1   
    45    21    23 1   
    46    22    23 2   
    47    23    24 1   
    48    24    25 1   
    49    24    65 1   
    50    24    66 1   
    51    25    26 1   
    52    25    67 1   
    53    25    68 1   
    54    26    27 1   
    55    26    69 1   
    56    26    70 1   
    57    27    28 1   
    58    27    71 1   
    59    27    72 1   
    60    28    29 1   
    61    28    73 1   
    62    28    74 1   
    63    29    30 1   
    64    29    75 1   
    65    29    76 1   
    66    30    31 1   
    67    30    77 1   
    68    30    78 1   
    69    31    32 1   
    70    31    79 1   
    71    31    80 1   
    72    32    33 1   
    73    32    81 1   
    74    32    82 1   
    75    33    34 1   
    76    33    83 1   
    77    33    84 1   
    78    34    35 1   
    79    34    85 1   
    80    34    86 1   
    81    35    36 1   
    82    35    87 1   
    83    35    88 1   
    84    36    37 1   
    85    36    89 1   
    86    36    90 1   
    87    37    38 1   
    88    37    91 1   
    89    37    92 1   
    90    38    39 1   
    91    38    93 1   
    92    38    94 1   
    93    39    40 1   
    94    39    95 1   
    95    39    96 1   
    96    40    97 1   
    97    40    98 1   
    98    40    99 1   
@<TRIPOS>SUBSTRUCTURE
     1 9PE         1 TEMP              0 ****  ****    0 ROOT
