@<TRIPOS>MOLECULE
9PE
   99    98     1     0     0
SMALL
No Charge or Current Charge


@<TRIPOS>ATOM
      1 P           -7.3540     1.5110    -0.7820 p5         1 9PE       1.403800
      2 N           -8.9640     2.9940     2.0230 n8         1 9PE      -0.992200
      3 O11         -5.7880     1.7850    -0.5200 os         1 9PE      -0.568400
      4 O12         -8.1350     2.7740    -0.6510 o          1 9PE      -0.822500
      5 O13         -7.6290     0.4620     0.4130 os         1 9PE      -0.624400
      6 O14         -7.5750     0.8620    -2.1070 o          1 9PE      -0.822500
      7 C11         -8.7590     0.5300     1.3040 c3         1 9PE       0.239600
      8 C12         -8.5670     1.6190     2.4120 c3         1 9PE       0.126800
      9 C1          -5.3690     2.6120     0.5770 c3         1 9PE       0.214600
     10 C2          -4.2070     1.9390     1.3780 c3         1 9PE       0.159300
     11 C3          -4.5440     0.5610     2.0110 c3         1 9PE       0.171600
     12 O31         -4.6550    -0.4520     0.9910 os         1 9PE      -0.400100
     13 O32         -5.2250    -2.0500     2.5360 o          1 9PE      -0.539000
     14 C31         -5.0210    -1.7120     1.3770 c          1 9PE       0.618100
     15 C32         -5.0550    -2.6830     0.1970 c3         1 9PE      -0.149400
     16 C33         -6.5000    -2.9320    -0.2940 c3         1 9PE      -0.059400
     17 C34         -6.5770    -3.9430    -1.4590 c3         1 9PE      -0.079400
     18 C35         -8.0210    -4.1900    -1.9480 c3         1 9PE      -0.074400
     19 C36         -8.1010    -5.2010    -3.1120 c3         1 9PE      -0.076400
     20 C37         -9.5410    -5.4490    -3.6000 c3         1 9PE      -0.086100
     21 O21         -3.0250     1.7880     0.5490 os         1 9PE      -0.417100
     22 O22         -2.5420     4.0340     0.5760 o          1 9PE      -0.520000
     23 C21         -2.3230     2.9010     0.1700 c          1 9PE       0.600100
     24 C22         -1.1220     2.5360    -0.7050 c3         1 9PE      -0.142400
     25 C23          0.1350     2.2570     0.1510 c3         1 9PE      -0.066400
     26 C24          1.3690     1.8730    -0.6950 c3         1 9PE      -0.076400
     27 C25          2.6250     1.5940     0.1600 c3         1 9PE      -0.074400
     28 C26          3.8580     1.2110    -0.6860 c3         1 9PE      -0.074400
     29 C27          5.1140     0.9320     0.1680 c3         1 9PE      -0.074400
     30 C28          6.3480     0.5480    -0.6780 c3         1 9PE      -0.074400
     31 C29          7.6040     0.2700     0.1770 c3         1 9PE      -0.074400
     32 C2A          8.8380    -0.1130    -0.6690 c3         1 9PE      -0.074400
     33 C2B         10.0940    -0.3920     0.1860 c3         1 9PE      -0.074400
     34 C2C         11.3280    -0.7750    -0.6600 c3         1 9PE      -0.074400
     35 C2D         12.5840    -1.0520     0.1950 c3         1 9PE      -0.074400
     36 C2E         13.8180    -1.4350    -0.6510 c3         1 9PE      -0.074400
     37 C2F         15.0740    -1.7130     0.2040 c3         1 9PE      -0.074400
     38 C2G         16.3080    -2.0960    -0.6420 c3         1 9PE      -0.075400
     39 C2H         17.5640    -2.3740     0.2130 c3         1 9PE      -0.075400
     40 C2I         18.7960    -2.7560    -0.6310 c3         1 9PE      -0.088100
     41 HN          -8.6100     3.1500     1.0620 hn         1 9PE       0.381500
     42 HNA         -9.9810     3.0210     1.8900 hn         1 9PE       0.381500
     43 H11         -9.6890     0.7180     0.7490 h1         1 9PE       0.023200
     44 H11A        -8.8730    -0.4410     1.8020 h1         1 9PE       0.023200
     45 H12         -7.5140     1.6330     2.7210 h1         1 9PE       0.025200
     46 H12A        -9.1630     1.3390     3.2910 h1         1 9PE       0.025200
     47 H1          -5.0470     3.5920     0.2050 h1         1 9PE       0.038700
     48 H1A         -6.1970     2.7980     1.2720 h1         1 9PE       0.038700
     49 H2          -3.9760     2.6060     2.2190 h1         1 9PE       0.050700
     50 H3          -3.7500     0.2970     2.7230 h1         1 9PE       0.053200
     51 H3A         -5.4810     0.6480     2.5750 h1         1 9PE       0.053200
     52 H32         -4.4870    -2.2530    -0.6370 hc         1 9PE       0.096200
     53 H32A        -4.6140    -3.6350     0.5120 hc         1 9PE       0.096200
     54 H33         -7.1080    -3.2990     0.5430 hc         1 9PE       0.040200
     55 H33A        -6.9400    -1.9800    -0.6160 hc         1 9PE       0.040200
     56 H34         -5.9720    -3.5750    -2.2970 hc         1 9PE       0.045200
     57 H34A        -6.1370    -4.8960    -1.1390 hc         1 9PE       0.045200
     58 H35         -8.6270    -4.5580    -1.1100 hc         1 9PE       0.031700
     59 H35A        -8.4610    -3.2370    -2.2680 hc         1 9PE       0.031700
     60 H36         -7.4980    -4.8360    -3.9530 hc         1 9PE       0.038200
     61 H36A        -7.6630    -6.1560    -2.7960 hc         1 9PE       0.038200
     62 H37         -9.9960    -4.5170    -3.9570 hc         1 9PE       0.025367
     63 H37A        -9.5470    -6.1710    -4.4250 hc         1 9PE       0.025367
     64 H37B       -10.1620    -5.8490    -2.7890 hc         1 9PE       0.025367
     65 H22         -1.3540     1.6210    -1.2620 hc         1 9PE       0.073200
     66 H22A        -0.9130     3.3640    -1.3920 hc         1 9PE       0.073200
     67 H23          0.3700     3.1470     0.7480 hc         1 9PE       0.048700
     68 H23A        -0.0830     1.4470     0.8590 hc         1 9PE       0.048700
     69 H24          1.1340     0.9820    -1.2910 hc         1 9PE       0.037700
     70 H24A         1.5870     2.6840    -1.4020 hc         1 9PE       0.037700
     71 H25          2.8600     2.4850     0.7560 hc         1 9PE       0.037200
     72 H25A         2.4060     0.7840     0.8660 hc         1 9PE       0.037200
     73 H26          3.6230     0.3200    -1.2820 hc         1 9PE       0.036700
     74 H26A         4.0760     2.0210    -1.3930 hc         1 9PE       0.036700
     75 H27          5.3490     1.8230     0.7640 hc         1 9PE       0.036700
     76 H27A         4.8960     0.1220     0.8750 hc         1 9PE       0.036700
     77 H28          6.1130    -0.3430    -1.2730 hc         1 9PE       0.037200
     78 H28A         6.5660     1.3590    -1.3850 hc         1 9PE       0.037200
     79 H29          7.8380     1.1610     0.7730 hc         1 9PE       0.036200
     80 H29A         7.3860    -0.5400     0.8840 hc         1 9PE       0.036200
     81 H2A          8.6030    -1.0050    -1.2650 hc         1 9PE       0.037200
     82 H2AA         9.0560     0.6970    -1.3760 hc         1 9PE       0.037200
     83 H2B         10.3280     0.4990     0.7820 hc         1 9PE       0.036700
     84 H2BA         9.8760    -1.2020     0.8930 hc         1 9PE       0.036700
     85 H2C         11.0930    -1.6660    -1.2560 hc         1 9PE       0.036700
     86 H2CA        11.5450     0.0360    -1.3670 hc         1 9PE       0.036700
     87 H2D         12.8180    -0.1610     0.7910 hc         1 9PE       0.036700
     88 H2DA        12.3660    -1.8630     0.9020 hc         1 9PE       0.036700
     89 H2E         13.5840    -2.3260    -1.2470 hc         1 9PE       0.036700
     90 H2EA        14.0350    -0.6250    -1.3580 hc         1 9PE       0.036700
     91 H2F         15.3080    -0.8220     0.8000 hc         1 9PE       0.036700
     92 H2FA        14.8560    -2.5240     0.9110 hc         1 9PE       0.036700
     93 H2G         16.0740    -2.9870    -1.2380 hc         1 9PE       0.036700
     94 H2GA        16.5260    -1.2860    -1.3490 hc         1 9PE       0.036700
     95 H2H         17.8030    -1.4840     0.8090 hc         1 9PE       0.036200
     96 H2HA        17.3510    -3.1860     0.9200 hc         1 9PE       0.036200
     97 H2I         18.6000    -3.6640    -1.2130 hc         1 9PE       0.030367
     98 H2IA        19.0560    -1.9480    -1.3250 hc         1 9PE       0.030367
     99 H2IB        19.6600    -2.9430     0.0180 hc         1 9PE       0.030367
@<TRIPOS>BOND
     1     1     3 1   
     2     1     4 1   
     3     1     5 1   
     4     1     6 1   
     5     2     8 1   
     6     2    41 1   
     7     2    42 1   
     8     3     9 1   
     9     5     7 1   
    10     7     8 1   
    11     7    43 1   
    12     7    44 1   
    13     8    45 1   
    14     8    46 1   
    15     9    10 1   
    16     9    47 1   
    17     9    48 1   
    18    10    11 1   
    19    10    21 1   
    20    10    49 1   
    21    11    12 1   
    22    11    50 1   
    23    11    51 1   
    24    12    14 1   
    25    13    14 2   
    26    14    15 1   
    27    15    16 1   
    28    15    52 1   
    29    15    53 1   
    30    16    17 1   
    31    16    54 1   
    32    16    55 1   
    33    17    18 1   
    34    17    56 1   
    35    17    57 1   
    36    18    19 1   
    37    18    58 1   
    38    18    59 1   
    39    19    20 1   
    40    19    60 1   
    41    19    61 1   
    42    20    62 1   
    43    20    63 1   
    44    20    64 1   
    45    21    23 1   
    46    22    23 2   
    47    23    24 1   
    48    24    25 1   
    49    24    65 1   
    50    24    66 1   
    51    25    26 1   
    52    25    67 1   
    53    25    68 1   
    54    26    27 1   
    55    26    69 1   
    56    26    70 1   
    57    27    28 1   
    58    27    71 1   
    59    27    72 1   
    60    28    29 1   
    61    28    73 1   
    62    28    74 1   
    63    29    30 1   
    64    29    75 1   
    65    29    76 1   
    66    30    31 1   
    67    30    77 1   
    68    30    78 1   
    69    31    32 1   
    70    31    79 1   
    71    31    80 1   
    72    32    33 1   
    73    32    81 1   
    74    32    82 1   
    75    33    34 1   
    76    33    83 1   
    77    33    84 1   
    78    34    35 1   
    79    34    85 1   
    80    34    86 1   
    81    35    36 1   
    82    35    87 1   
    83    35    88 1   
    84    36    37 1   
    85    36    89 1   
    86    36    90 1   
    87    37    38 1   
    88    37    91 1   
    89    37    92 1   
    90    38    39 1   
    91    38    93 1   
    92    38    94 1   
    93    39    40 1   
    94    39    95 1   
    95    39    96 1   
    96    40    97 1   
    97    40    98 1   
    98    40    99 1   
@<TRIPOS>SUBSTRUCTURE
     1 9PE         1 TEMP              0 ****  ****    0 ROOT
