@<TRIPOS>MOLECULE
9PG
   36    37     1     0     0
SMALL
No Charge or Current Charge


@<TRIPOS>ATOM
      1 C6           1.9170     2.8480     0.3510 c3         1 9PG       0.171600
      2 C5           1.9750     1.2860     0.3980 c6         1 9PG       0.169300
      3 C4           3.4230     0.7460     0.6400 c6         1 9PG       0.147300
      4 C3           3.3850    -0.8110     0.6190 c6         1 9PG       0.139300
      5 C2           2.7210    -1.3460    -0.6880 c6         1 9PG       0.114300
      6 C1           1.3090    -0.6840    -0.8850 c6         1 9PG       0.363300
      7 O8          -5.6830     0.6650    -0.9090 o          1 9PG      -0.407500
      8 O7          -5.8870    -0.3390     1.0170 o          1 9PG      -0.407500
      9 C9          -3.7440    -0.2530     0.0540 ca         1 9PG      -0.224200
     10 C14         -3.1570    -0.9590     1.1280 ca         1 9PG      -0.008000
     11 C13         -1.7800    -1.2360     1.1210 ca         1 9PG      -0.182000
     12 C12         -0.9690    -0.8170     0.0570 ca         1 9PG       0.196100
     13 C11         -1.5500    -0.1150    -1.0200 ca         1 9PG      -0.182000
     14 C10         -2.9270     0.1670    -1.0210 ca         1 9PG      -0.008000
     15 O1           0.3740    -1.1330     0.1210 os         1 9PG      -0.362100
     16 O2           2.6770    -2.7990    -0.6480 oh         1 9PG      -0.707000
     17 O3           4.7170    -1.3470     0.7430 oh         1 9PG      -0.670000
     18 O4           4.3640     1.2080    -0.3520 oh         1 9PG      -0.716000
     19 O5           1.4250     0.7590    -0.8420 os         1 9PG      -0.440000
     20 O6           0.5800     3.3660     0.1830 oh         1 9PG      -0.716000
     21 H1           2.3540     3.2320     1.2830 h1         1 9PG       0.040200
     22 H2           2.5580     3.1920    -0.4730 h1         1 9PG       0.040200
     23 H3           1.3360     0.9640     1.2340 h1         1 9PG       0.067700
     24 H4           3.7470     1.0690     1.6410 h1         1 9PG       0.056700
     25 H5           2.7720    -1.1440     1.4710 h1         1 9PG       0.068700
     26 H6           3.3410    -1.0240    -1.5390 h1         1 9PG       0.070700
     27 H7           0.9340    -0.9810    -1.8750 h2         1 9PG       0.081700
     28 H9          -1.3350    -1.7800     1.9500 ha         1 9PG       0.141000
     29 H10         -0.9540     0.2240    -1.8620 ha         1 9PG       0.141000
     30 H11         -3.3510     0.7130    -1.8630 ha         1 9PG       0.150000
     31 H12          2.2680    -3.1120    -1.4890 ho         1 9PG       0.514000
     32 H13          4.6270    -2.2990     0.5000 ho         1 9PG       0.470000
     33 H14          5.1120     0.5650    -0.2940 ho         1 9PG       0.525000
     34 H15          0.6610     4.3430     0.0770 ho         1 9PG       0.508000
     35 H8          -3.7590    -1.2970     1.9720 ha         1 9PG       0.150000
     36 N           -5.2110     0.0470     0.0540 no         1 9PG       0.702200
@<TRIPOS>BOND
     1     1     2 1   
     2     1    20 1   
     3     1    21 1   
     4     1    22 1   
     5     2     3 1   
     6     2    19 1   
     7     2    23 1   
     8     3     4 1   
     9     3    18 1   
    10     3    24 1   
    11     4     5 1   
    12     4    17 1   
    13     4    25 1   
    14     5     6 1   
    15     5    16 1   
    16     5    26 1   
    17     6    15 1   
    18     6    19 1   
    19     6    27 1   
    20     7    36 1   
    21     8    36 1   
    22     9    10 ar  
    23     9    14 ar  
    24     9    36 1   
    25    10    11 ar  
    26    10    35 1   
    27    11    12 ar  
    28    11    28 1   
    29    12    13 ar  
    30    12    15 1   
    31    13    14 ar  
    32    13    29 1   
    33    14    30 1   
    34    16    31 1   
    35    17    32 1   
    36    18    33 1   
    37    20    34 1   
@<TRIPOS>SUBSTRUCTURE
     1 9PG         1 TEMP              0 ****  ****    0 ROOT
