@<TRIPOS>MOLECULE
9PG
   36    37     1     0     0
SMALL
bcc


@<TRIPOS>ATOM
      1 C6           2.0870     2.8330     0.2210 c3         1 9PG       0.148400
      2 C5           2.0210     1.3280     0.3620 c6         1 9PG       0.146100
      3 C4           3.3860     0.7040     0.6090 c6         1 9PG       0.124100
      4 C3           3.2460    -0.8170     0.6450 c6         1 9PG       0.116100
      5 C2           2.5690    -1.3030    -0.6310 c6         1 9PG       0.091100
      6 C1           1.2480    -0.5620    -0.8520 c6         1 9PG       0.316900
      7 O8          -5.6030     0.5170    -0.8700 o          1 9PG      -0.217500
      8 O7          -5.7840    -0.6380     0.9140 o          1 9PG      -0.217500
      9 C9          -3.6960    -0.3410     0.0440 ca         1 9PG      -0.224200
     10 C14         -3.1200    -1.0970     1.0600 ca         1 9PG      -0.026000
     11 C13         -1.7570    -1.2900     1.0650 ca         1 9PG      -0.200000
     12 C12         -0.9560    -0.7350     0.0610 ca         1 9PG       0.196100
     13 C11         -1.5430     0.0360    -0.9440 ca         1 9PG      -0.200000
     14 C10         -2.9130     0.2220    -0.9530 ca         1 9PG      -0.026000
     15 O1           0.3520    -1.0050     0.1510 os         1 9PG      -0.338900
     16 O2           2.3880    -2.6910    -0.5350 oh         1 9PG      -0.584800
     17 O3           4.5370    -1.3590     0.7850 oh         1 9PG      -0.607800
     18 O4           4.2700     1.1210    -0.4030 oh         1 9PG      -0.593800
     19 O5           1.4190     0.8100    -0.8200 os         1 9PG      -0.393600
     20 O6           0.7740     3.3400     0.2310 oh         1 9PG      -0.593800
     21 H1           2.6790     3.2210     1.0600 h1         1 9PG       0.040200
     22 H2           2.6190     3.0970    -0.7010 h1         1 9PG       0.040200
     23 H3           1.3980     1.0990     1.2370 h1         1 9PG       0.067700
     24 H4           3.7290     1.0400     1.5980 h1         1 9PG       0.056700
     25 H5           2.6180    -1.0800     1.5080 h1         1 9PG       0.068700
     26 H6           3.2130    -1.0450    -1.4810 h1         1 9PG       0.070700
     27 H7           0.8440    -0.8030    -1.8410 h2         1 9PG       0.081700
     28 H9          -1.2960    -1.8790     1.8460 ha         1 9PG       0.159000
     29 H10         -0.9600     0.5060    -1.7210 ha         1 9PG       0.159000
     30 H11         -3.3560     0.8150    -1.7400 ha         1 9PG       0.168000
     31 H12          2.3090    -3.0590    -1.4200 ho         1 9PG       0.415000
     32 H13          4.4800    -2.3150     0.6870 ho         1 9PG       0.431000
     33 H14          5.0930     0.6310    -0.3010 ho         1 9PG       0.426000
     34 H15          0.8240     4.2930     0.1120 ho         1 9PG       0.409000
     35 H8          -3.7200    -1.5370     1.8430 ha         1 9PG       0.168000
     36 N           -5.1260    -0.1390     0.0280 no         1 9PG       0.322200
@<TRIPOS>BOND
     1     1     2 1   
     2     1    20 1   
     3     1    21 1   
     4     1    22 1   
     5     2     3 1   
     6     2    19 1   
     7     2    23 1   
     8     3     4 1   
     9     3    18 1   
    10     3    24 1   
    11     4     5 1   
    12     4    17 1   
    13     4    25 1   
    14     5     6 1   
    15     5    16 1   
    16     5    26 1   
    17     6    15 1   
    18     6    19 1   
    19     6    27 1   
    20     7    36 1   
    21     8    36 1   
    22     9    10 ar  
    23     9    14 ar  
    24     9    36 1   
    25    10    11 ar  
    26    10    35 1   
    27    11    12 ar  
    28    11    28 1   
    29    12    13 ar  
    30    12    15 1   
    31    13    14 ar  
    32    13    29 1   
    33    14    30 1   
    34    16    31 1   
    35    17    32 1   
    36    18    33 1   
    37    20    34 1   
@<TRIPOS>SUBSTRUCTURE
     1 9PG         1 TEMP              0 ****  ****    0 ROOT
