@<TRIPOS>MOLECULE
9PH
   88    92     1     0     0
SMALL
bcc


@<TRIPOS>ATOM
      1 C4           7.2480    -3.0430    -0.7910 c6         1 9PH       0.116100
      2 C5           6.2690    -3.0110     0.3840 c6         1 9PH       0.157100
      3 C6           6.8520    -3.6650     1.6190 c3         1 9PH       0.149400
      4 C3           6.6410    -2.2970    -1.9730 c6         1 9PH       0.115100
      5 CBQ         -9.6930    -2.5430    -0.0030 ca         1 9PH      -0.107000
      6 CBS        -10.1810    -2.9730     1.2260 ca         1 9PH      -0.133500
      7 CBV         -9.4640    -3.8980     1.9720 ca         1 9PH      -0.121000
      8 CBT         -8.2600    -4.3930     1.4840 ca         1 9PH      -0.133500
      9 CBR         -7.7790    -3.9650     0.2560 ca         1 9PH      -0.107000
     10 CBP         -8.4920    -3.0360    -0.5000 ca         1 9PH      -0.090300
     11 CBN         -7.9540    -2.5680    -1.8200 c3         1 9PH       0.186700
     12 OBO         -6.7970    -1.7960    -1.5830 os         1 9PH      -0.411600
     13 CBI         -5.0410    -0.4880    -2.3970 cc         1 9PH       0.256600
     14 CBH         -4.7020     0.0230    -1.1740 cd         1 9PH      -0.181600
     15 NBL         -4.1270    -0.0590    -3.2960 nc         1 9PH      -0.354000
     16 NBK         -3.2600     0.6810    -2.7010 nd         1 9PH      -0.209800
     17 NBJ         -3.5870     0.7380    -1.4210 na         1 9PH       0.094400
     18 CAM         -2.8320     1.5400    -0.4920 c6         1 9PH       0.241800
     19 CAL         -1.3270     1.4260    -0.7430 c6         1 9PH       0.093100
     20 OBB         -0.8930     0.1080    -0.5590 oh         1 9PH      -0.589800
     21 OBE         -3.2600     2.8590    -0.6300 os         1 9PH      -0.390600
     22 CAN         -2.6830     3.7170     0.3390 c6         1 9PH       0.116100
     23 CAR         -3.3060     5.0840     0.1640 c3         1 9PH       0.148400
     24 OAU         -4.6840     4.9940     0.4280 oh         1 9PH      -0.581800
     25 CAO         -1.1560     3.7540     0.1720 c6         1 9PH       0.113100
     26 OBA         -0.5540     4.5090     1.1890 oh         1 9PH      -0.564800
     27 CAK         -0.6030     2.3340     0.2470 c6         1 9PH       0.152100
     28 OBG          0.7720     2.3580    -0.0660 os         1 9PH      -0.397600
     29 CAH          1.6130     1.6090     0.7360 c6         1 9PH       0.317900
     30 CAG          2.8520     1.2540    -0.0840 c6         1 9PH       0.100100
     31 OAZ          2.5430     0.4310    -1.1750 oh         1 9PH      -0.590800
     32 OBD          1.9820     2.3890     1.8380 os         1 9PH      -0.407600
     33 CAI          2.8050     1.6890     2.7460 c6         1 9PH       0.119100
     34 CAQ          3.0290     2.5760     3.9520 c3         1 9PH       0.149400
     35 OAT          1.8010     2.7940     4.6010 oh         1 9PH      -0.580800
     36 CAJ          4.1310     1.3050     2.0680 c6         1 9PH       0.110100
     37 OAY          4.9280     0.5120     2.9090 oh         1 9PH      -0.564800
     38 CAF          3.8390     0.5060     0.8030 c6         1 9PH       0.160100
     39 O1           5.0420     0.2960     0.0920 os         1 9PH      -0.397600
     40 C1           5.3120    -0.9900    -0.3350 c6         1 9PH       0.319900
     41 O5           5.9640    -1.6700     0.7020 os         1 9PH      -0.408600
     42 O6           5.8740    -3.6930     2.6300 oh         1 9PH      -0.585800
     43 O4           7.5090    -4.3850    -1.1170 oh         1 9PH      -0.597800
     44 O3           7.6000    -2.2850    -3.0050 oh         1 9PH      -0.603800
     45 C2           6.2210    -0.8940    -1.5600 c6         1 9PH       0.093100
     46 O2           5.5640    -0.3030    -2.6520 oh         1 9PH      -0.600800
     47 H1           8.1710    -2.5230    -0.4850 h1         1 9PH       0.056700
     48 H2           5.3530    -3.5490     0.0880 h1         1 9PH       0.057700
     49 H3           7.1830    -4.6730     1.3490 h1         1 9PH       0.035700
     50 H4           7.7450    -3.1040     1.9260 h1         1 9PH       0.035700
     51 H5           5.7400    -2.8480    -2.2880 h1         1 9PH       0.051700
     52 H7         -11.1190    -2.5820     1.5990 ha         1 9PH       0.131000
     53 H8          -9.8410    -4.2340     2.9290 ha         1 9PH       0.130000
     54 H9          -7.6990    -5.1170     2.0600 ha         1 9PH       0.131000
     55 H10         -6.8430    -4.3610    -0.1210 ha         1 9PH       0.132500
     56 H11         -7.7110    -3.4290    -2.4570 h1         1 9PH       0.030700
     57 H12         -8.7120    -1.9790    -2.3530 h1         1 9PH       0.030700
     58 H13         -5.8360    -2.2040    -3.3770 h1         1 9PH       0.041200
     59 H14         -6.8960    -0.7990    -3.3950 h1         1 9PH       0.041200
     60 H16         -3.0640     1.1510     0.5090 h2         1 9PH       0.068700
     61 H17         -1.1140     1.7890    -1.7560 h1         1 9PH       0.079700
     62 H18         -0.8920    -0.3470    -1.4060 ho         1 9PH       0.429000
     63 H19         -2.9110     3.3430     1.3500 h1         1 9PH       0.067700
     64 H20         -2.8100     5.7780     0.8510 h1         1 9PH       0.029700
     65 H21         -3.1050     5.4400    -0.8560 h1         1 9PH       0.029700
     66 H22         -5.0570     5.8780     0.3560 ho         1 9PH       0.408000
     67 H23         -0.9260     4.1620    -0.8230 h1         1 9PH       0.055700
     68 H24         -0.5090     5.4280     0.9110 ho         1 9PH       0.408000
     69 H25         -0.7620     1.9560     1.2670 h1         1 9PH       0.078700
     70 H26          1.1200     0.6840     1.0780 h2         1 9PH       0.054700
     71 H27          3.3210     2.1970    -0.4080 h1         1 9PH       0.059700
     72 H28          1.9540     0.9140    -1.7640 ho         1 9PH       0.421000
     73 H29          2.3060     0.7610     3.0740 h1         1 9PH       0.063700
     74 H30          3.7480     2.0810     4.6150 h1         1 9PH       0.025700
     75 H31          3.4910     3.5170     3.6200 h1         1 9PH       0.025700
     76 H32          1.9730     3.3100     5.3930 ho         1 9PH       0.404000
     77 H33          4.6510     2.2310     1.7790 h1         1 9PH       0.051700
     78 H34          5.4870     1.0850     3.4410 ho         1 9PH       0.406000
     79 H35          3.3950    -0.4550     1.0990 h1         1 9PH       0.077700
     80 H36          4.3860    -1.5230    -0.6110 h2         1 9PH       0.048700
     81 H37          6.2260    -4.1990     3.3670 ho         1 9PH       0.402000
     82 H38          8.0660    -4.3980    -1.9020 ho         1 9PH       0.425000
     83 H39          7.1620    -2.0650    -3.8330 ho         1 9PH       0.426000
     84 H40          7.1190    -0.3250    -1.2700 h1         1 9PH       0.064700
     85 H41          5.1970     0.5410    -2.3680 ho         1 9PH       0.427000
     86 H15         -5.1380    -0.0610    -0.1940 h4         1 9PH       0.201000
     87 CBM         -6.1880    -1.3600    -2.7680 c3         1 9PH       0.121100
     88 H6         -10.2540    -1.8180    -0.5800 ha         1 9PH       0.132500
@<TRIPOS>BOND
     1     1     2 1   
     2     1     4 1   
     3     1    43 1   
     4     1    47 1   
     5     2     3 1   
     6     2    41 1   
     7     2    48 1   
     8     3    42 1   
     9     3    49 1   
    10     3    50 1   
    11     4    44 1   
    12     4    45 1   
    13     4    51 1   
    14     5     6 ar  
    15     5    10 ar  
    16     5    88 1   
    17     6     7 ar  
    18     6    52 1   
    19     7     8 ar  
    20     7    53 1   
    21     8     9 ar  
    22     8    54 1   
    23     9    10 ar  
    24     9    55 1   
    25    10    11 1   
    26    11    12 1   
    27    11    56 1   
    28    11    57 1   
    29    12    87 1   
    30    13    14 2   
    31    13    15 1   
    32    13    87 1   
    33    14    17 1   
    34    14    86 1   
    35    15    16 2   
    36    16    17 1   
    37    17    18 1   
    38    18    19 1   
    39    18    21 1   
    40    18    60 1   
    41    19    20 1   
    42    19    27 1   
    43    19    61 1   
    44    20    62 1   
    45    21    22 1   
    46    22    23 1   
    47    22    25 1   
    48    22    63 1   
    49    23    24 1   
    50    23    64 1   
    51    23    65 1   
    52    24    66 1   
    53    25    26 1   
    54    25    27 1   
    55    25    67 1   
    56    26    68 1   
    57    27    28 1   
    58    27    69 1   
    59    28    29 1   
    60    29    30 1   
    61    29    32 1   
    62    29    70 1   
    63    30    31 1   
    64    30    38 1   
    65    30    71 1   
    66    31    72 1   
    67    32    33 1   
    68    33    34 1   
    69    33    36 1   
    70    33    73 1   
    71    34    35 1   
    72    34    74 1   
    73    34    75 1   
    74    35    76 1   
    75    36    37 1   
    76    36    38 1   
    77    36    77 1   
    78    37    78 1   
    79    38    39 1   
    80    38    79 1   
    81    39    40 1   
    82    40    41 1   
    83    40    45 1   
    84    40    80 1   
    85    42    81 1   
    86    43    82 1   
    87    44    83 1   
    88    45    46 1   
    89    45    84 1   
    90    46    85 1   
    91    58    87 1   
    92    59    87 1   
@<TRIPOS>SUBSTRUCTURE
     1 9PH         1 TEMP              0 ****  ****    0 ROOT
