@<TRIPOS>MOLECULE
9PH
   88    92     1     0     0
SMALL
No Charge or Current Charge


@<TRIPOS>ATOM
      1 C4           7.1530    -2.8740    -1.1300 c6         1 9PH       0.139300
      2 C5           6.1470    -3.2270     0.0140 c6         1 9PH       0.180300
      3 C6           6.6590    -4.3950     0.9200 c3         1 9PH       0.172600
      4 C3           6.6170    -1.6510    -1.9340 c6         1 9PH       0.138300
      5 CBQ         -9.0280    -2.4820     0.8710 ca         1 9PH      -0.089000
      6 CBS         -9.3320    -2.8810     2.1850 ca         1 9PH      -0.115500
      7 CBV         -8.7610    -4.0500     2.7150 ca         1 9PH      -0.103000
      8 CBT         -7.8830    -4.8190     1.9310 ca         1 9PH      -0.115500
      9 CBR         -7.5790    -4.4200     0.6180 ca         1 9PH      -0.089000
     10 CBP         -8.1500    -3.2500     0.0800 ca         1 9PH      -0.090300
     11 CBN         -7.8220    -2.8180    -1.3430 c3         1 9PH       0.209900
     12 OBO         -6.6810    -1.9460    -1.3040 os         1 9PH      -0.458000
     13 CBI         -5.0630    -0.5470    -2.4180 cc         1 9PH       0.191300
     14 CBH         -4.7210     0.1930    -1.3270 cd         1 9PH      -0.149000
     15 NBL         -4.1510    -0.3690    -3.4230 nc         1 9PH      -0.354000
     16 NBK         -3.2320     0.4660    -3.0070 nd         1 9PH      -0.209800
     17 NBJ         -3.5600     0.8190    -1.7190 na         1 9PH       0.115800
     18 CAM         -2.7590     1.7570    -0.8920 c6         1 9PH       0.294300
     19 CAL         -1.2160     1.5000    -1.0090 c6         1 9PH       0.116300
     20 OBB         -0.8580     0.1570    -0.5960 oh         1 9PH      -0.712000
     21 OBE         -3.0780     3.1070    -1.3100 os         1 9PH      -0.437000
     22 CAN         -2.4550     4.1460    -0.5130 c6         1 9PH       0.139300
     23 CAR         -2.9770     5.5310    -1.0160 c3         1 9PH       0.171600
     24 OAU         -4.4140     5.6400    -0.9860 oh         1 9PH      -0.704000
     25 CAO         -0.9060     4.0170    -0.6170 c6         1 9PH       0.136300
     26 OBA         -0.2230     5.0120     0.1690 oh         1 9PH      -0.687000
     27 CAK         -0.4700     2.5920    -0.1700 c6         1 9PH       0.175300
     28 OBG          0.9780     2.4930    -0.2450 os         1 9PH      -0.444000
     29 CAH          1.5990     1.5980     0.6970 c6         1 9PH       0.364300
     30 CAG          3.0910     1.3650     0.3000 c6         1 9PH       0.123300
     31 OAZ          3.2250     0.8720    -1.0570 oh         1 9PH      -0.713000
     32 OBD          1.5470     2.1970     2.0050 os         1 9PH      -0.454000
     33 CAI          2.0770     1.3540     3.0630 c6         1 9PH       0.142300
     34 CAQ          1.8600     2.0820     4.4300 c3         1 9PH       0.172600
     35 OAT          0.4820     2.4220     4.6800 oh         1 9PH      -0.703000
     36 CAJ          3.5810     1.0430     2.7820 c6         1 9PH       0.133300
     37 OAY          4.1540     0.1720     3.7770 oh         1 9PH      -0.687000
     38 CAF          3.7260     0.4140     1.3660 c6         1 9PH       0.183300
     39 O1           5.1200     0.1130     1.1020 os         1 9PH      -0.444000
     40 C1           5.3630    -0.9380     0.1480 c6         1 9PH       0.366300
     41 O5           5.9250    -2.0590     0.8510 os         1 9PH      -0.455000
     42 O6           5.7690    -4.7050     2.0140 oh         1 9PH      -0.708000
     43 O4           7.3730    -3.9800    -2.0260 oh         1 9PH      -0.720000
     44 O3           7.5530    -1.2630    -2.9550 oh         1 9PH      -0.666000
     45 C2           6.3380    -0.4560    -0.9790 c6         1 9PH       0.116300
     46 O2           5.8250     0.6770    -1.7250 oh         1 9PH      -0.723000
     47 H1           8.1070    -2.5830    -0.6620 h1         1 9PH       0.056700
     48 H2           5.1870    -3.5330    -0.4270 h1         1 9PH       0.057700
     49 H3           6.7970    -5.2840     0.2900 h1         1 9PH       0.035700
     50 H4           7.6490    -4.1160     1.3080 h1         1 9PH       0.035700
     51 H5           5.6620    -1.9390    -2.4000 h1         1 9PH       0.051700
     52 H7         -10.0100    -2.2850     2.7910 ha         1 9PH       0.113000
     53 H8          -8.9960    -4.3590     3.7310 ha         1 9PH       0.112000
     54 H9          -7.4390    -5.7240     2.3410 ha         1 9PH       0.113000
     55 H10         -6.8970    -5.0190     0.0180 ha         1 9PH       0.114500
     56 H11         -7.6110    -3.7040    -1.9570 h1         1 9PH       0.030700
     57 H12         -8.6890    -2.3030    -1.7790 h1         1 9PH       0.030700
     58 H13         -5.9900    -2.2870    -3.2530 h1         1 9PH       0.041200
     59 H14         -7.0690    -0.8850    -3.0710 h1         1 9PH       0.041200
     60 H16         -3.0830     1.6030     0.1480 h2         1 9PH       0.068700
     61 H17         -0.9300     1.6520    -2.0610 h1         1 9PH       0.079700
     62 H18         -1.1380    -0.4600    -1.3150 ho         1 9PH       0.528000
     63 H19         -2.7650     4.0250     0.5360 h1         1 9PH       0.067700
     64 H20         -2.5320     6.3170    -0.3910 h1         1 9PH       0.029700
     65 H21         -2.6100     5.6830    -2.0400 h1         1 9PH       0.029700
     66 H22         -4.6440     6.5150    -1.3780 ho         1 9PH       0.507000
     67 H23         -0.6280     4.1370    -1.6750 h1         1 9PH       0.055700
     68 H24          0.6770     4.6420     0.3370 ho         1 9PH       0.507000
     69 H25         -0.7720     2.4770     0.8820 h1         1 9PH       0.078700
     70 H26          1.0770     0.6320     0.7110 h2         1 9PH       0.054700
     71 H27          3.6000     2.3370     0.3780 h1         1 9PH       0.059700
     72 H28          2.4830     1.2840    -1.5670 ho         1 9PH       0.520000
     73 H29          1.5070     0.4130     3.0850 h1         1 9PH       0.063700
     74 H30          2.2320     1.4310     5.2320 h1         1 9PH       0.025700
     75 H31          2.4770     2.9910     4.4360 h1         1 9PH       0.025700
     76 H32          0.4600     2.9290     5.5240 ho         1 9PH       0.503000
     77 H33          4.1270     1.9990     2.7820 h1         1 9PH       0.051700
     78 H34          4.9860    -0.1780     3.3790 ho         1 9PH       0.505000
     79 H35          3.1620    -0.5310     1.3690 h1         1 9PH       0.077700
     80 H36          4.4150    -1.2520    -0.3160 h2         1 9PH       0.048700
     81 H37          6.2100    -5.4030     2.5530 ho         1 9PH       0.501000
     82 H38          7.7570    -3.5720    -2.8410 ho         1 9PH       0.524000
     83 H39          7.3250    -0.3250    -3.1590 ho         1 9PH       0.465000
     84 H40          7.2850    -0.1770    -0.4940 h1         1 9PH       0.064700
     85 H41          4.8660     0.7850    -1.4540 ho         1 9PH       0.526000
     86 H15         -5.1910     0.3110    -0.3600 h4         1 9PH       0.183000
     87 CBM         -6.2610    -1.4530    -2.5920 c3         1 9PH       0.144300
     88 H6          -9.4720    -1.5740     0.4680 ha         1 9PH       0.114500
@<TRIPOS>BOND
     1     1     2 1   
     2     1     4 1   
     3     1    43 1   
     4     1    47 1   
     5     2     3 1   
     6     2    41 1   
     7     2    48 1   
     8     3    42 1   
     9     3    49 1   
    10     3    50 1   
    11     4    44 1   
    12     4    45 1   
    13     4    51 1   
    14     5     6 ar  
    15     5    10 ar  
    16     5    88 1   
    17     6     7 ar  
    18     6    52 1   
    19     7     8 ar  
    20     7    53 1   
    21     8     9 ar  
    22     8    54 1   
    23     9    10 ar  
    24     9    55 1   
    25    10    11 1   
    26    11    12 1   
    27    11    56 1   
    28    11    57 1   
    29    12    87 1   
    30    13    14 2   
    31    13    15 1   
    32    13    87 1   
    33    14    17 1   
    34    14    86 1   
    35    15    16 2   
    36    16    17 1   
    37    17    18 1   
    38    18    19 1   
    39    18    21 1   
    40    18    60 1   
    41    19    20 1   
    42    19    27 1   
    43    19    61 1   
    44    20    62 1   
    45    21    22 1   
    46    22    23 1   
    47    22    25 1   
    48    22    63 1   
    49    23    24 1   
    50    23    64 1   
    51    23    65 1   
    52    24    66 1   
    53    25    26 1   
    54    25    27 1   
    55    25    67 1   
    56    26    68 1   
    57    27    28 1   
    58    27    69 1   
    59    28    29 1   
    60    29    30 1   
    61    29    32 1   
    62    29    70 1   
    63    30    31 1   
    64    30    38 1   
    65    30    71 1   
    66    31    72 1   
    67    32    33 1   
    68    33    34 1   
    69    33    36 1   
    70    33    73 1   
    71    34    35 1   
    72    34    74 1   
    73    34    75 1   
    74    35    76 1   
    75    36    37 1   
    76    36    38 1   
    77    36    77 1   
    78    37    78 1   
    79    38    39 1   
    80    38    79 1   
    81    39    40 1   
    82    40    41 1   
    83    40    45 1   
    84    40    80 1   
    85    42    81 1   
    86    43    82 1   
    87    44    83 1   
    88    45    46 1   
    89    45    84 1   
    90    46    85 1   
    91    58    87 1   
    92    59    87 1   
@<TRIPOS>SUBSTRUCTURE
     1 9PH         1 TEMP              0 ****  ****    0 ROOT
