@<TRIPOS>MOLECULE
9PJ
   51    53     1     0     0
SMALL
abcg2


@<TRIPOS>ATOM
      1 O2           8.8130     8.5420    14.2660 o          1 9PJ      -0.438100
      2 C21          7.7950     9.1610    14.4580 c          1 9PJ       0.670700
      3 N3           7.1860     9.8700    13.4210 ne         1 9PJ      -0.634100
      4 C1           6.2320    10.6850    13.6660 c2         1 9PJ       0.487300
      5 C            5.5340    11.3380    12.5240 c3         1 9PJ      -0.154400
      6 C20          7.1270     9.1690    15.7720 ce         1 9PJ       0.046300
      7 F6           7.5940     8.2810    16.6510 f          1 9PJ      -0.134500
      8 C19          6.1570    10.0210    16.0650 c2         1 9PJ      -0.232200
      9 C2           5.7490    11.0300    15.0490 c6         1 9PJ      -0.151800
     10 C3           6.2330    12.4470    15.4550 c3         1 9PJ       0.098000
     11 N            7.6810    12.5080    15.6030 n          1 9PJ      -0.320300
     12 C16          8.2430    12.1940    16.8360 c          1 9PJ       0.536200
     13 O1           7.5740    11.9680    17.8230 o          1 9PJ      -0.507000
     14 C6           9.6940    12.1440    16.8130 cc         1 9PJ      -0.018100
     15 C5          10.3720    12.4640    15.6850 cd         1 9PJ       0.090400
     16 C17         11.8810    12.4080    15.5960 c3         1 9PJ       0.196200
     17 F3          12.3160    13.2960    14.6790 f          1 9PJ      -0.084500
     18 C18         12.4100    11.0260    15.1960 c3         1 9PJ       0.145300
     19 F5          11.9400    10.1130    16.0730 f          1 9PJ      -0.093500
     20 F4          11.9230    10.7160    13.9760 f          1 9PJ      -0.093500
     21 F2          12.4460    12.7480    16.7760 f          1 9PJ      -0.084500
     22 N1           9.7420    12.8200    14.5380 nd         1 9PJ      -0.583300
     23 C4           8.4570    12.8240    14.5370 cc         1 9PJ       0.504800
     24 O           10.2900    11.6750    17.9300 os         1 9PJ      -0.207200
     25 C7          10.1800    12.3820    19.0910 ca         1 9PJ       0.116100
     26 C13         10.2200    11.6200    20.2620 ca         1 9PJ      -0.007300
     27 C14         10.3100    10.1300    20.1820 c3         1 9PJ      -0.053800
     28 C11         10.1610    12.3240    21.4650 ca         1 9PJ      -0.003000
     29 C12         10.2060    11.6230    22.7090 cg         1 9PJ       0.324000
     30 N2          10.2430    11.0810    23.7240 n1         1 9PJ      -0.445000
     31 C10         10.0470    13.7160    21.5050 ca         1 9PJ      -0.060000
     32 C9          10.0030    14.4270    20.3250 ca         1 9PJ      -0.157300
     33 C8          10.0800    13.7580    19.1060 ca         1 9PJ      -0.095000
     34 C15          9.8590    15.9140    20.3570 c3         1 9PJ       0.230600
     35 F            8.7300    16.2830    19.6900 f          1 9PJ      -0.119000
     36 F1          10.8960    16.5060    19.7030 f          1 9PJ      -0.119000
     37 H1           6.0350    11.1240    11.5850 hc         1 9PJ       0.065700
     38 H2           4.5080    10.9640    12.4750 hc         1 9PJ       0.065700
     39 H3           5.4610    12.4190    12.6530 hc         1 9PJ       0.065700
     40 H4           5.6910    10.0430    17.0410 ha         1 9PJ       0.222000
     41 H5           4.6570    11.1020    15.0190 hc         1 9PJ       0.095700
     42 H6           5.9320    13.1810    14.7100 h1         1 9PJ       0.081200
     43 H7           5.7710    12.7280    16.3970 h1         1 9PJ       0.081200
     44 H8          13.5030    10.9920    15.1780 h2         1 9PJ       0.090700
     45 H9           7.9300    13.1120    13.6350 h5         1 9PJ       0.061800
     46 H10         11.2320     9.8190    19.6910 hc         1 9PJ       0.062033
     47 H11         10.2840     9.6660    21.1650 hc         1 9PJ       0.062033
     48 H12          9.4810     9.7270    19.5990 hc         1 9PJ       0.062033
     49 H13          9.9930    14.2250    22.4590 ha         1 9PJ       0.130000
     50 H14         10.0630    14.3160    18.1760 ha         1 9PJ       0.137000
     51 H15          9.8130    16.3150    21.3710 h2         1 9PJ       0.066700
@<TRIPOS>BOND
     1     1     2 2   
     2     2     3 1   
     3     2     6 1   
     4     3     4 2   
     5     4     5 1   
     6     4     9 1   
     7     5    37 1   
     8     5    38 1   
     9     5    39 1   
    10     6     7 1   
    11     6     8 2   
    12     8     9 1   
    13     8    40 1   
    14     9    10 1   
    15     9    41 1   
    16    10    11 1   
    17    10    42 1   
    18    10    43 1   
    19    11    12 1   
    20    11    23 1   
    21    12    13 2   
    22    12    14 1   
    23    14    15 2   
    24    14    24 1   
    25    15    16 1   
    26    15    22 1   
    27    16    17 1   
    28    16    18 1   
    29    16    21 1   
    30    18    19 1   
    31    18    20 1   
    32    18    44 1   
    33    22    23 2   
    34    23    45 1   
    35    24    25 1   
    36    25    26 ar  
    37    25    33 ar  
    38    26    27 1   
    39    26    28 ar  
    40    27    46 1   
    41    27    47 1   
    42    27    48 1   
    43    28    29 1   
    44    28    31 ar  
    45    29    30 3   
    46    31    32 ar  
    47    31    49 1   
    48    32    33 ar  
    49    32    34 1   
    50    33    50 1   
    51    34    35 1   
    52    34    36 1   
    53    34    51 1   
@<TRIPOS>SUBSTRUCTURE
     1 9PJ         1 TEMP              0 ****  ****    0 ROOT
