@<TRIPOS>MOLECULE
9PJ
   51    53     1     0     0
SMALL
No Charge or Current Charge


@<TRIPOS>ATOM
      1 O2           8.2560     8.3280    13.2820 o          1 9PJ      -0.438100
      2 C21          7.4070     9.0620    13.7650 c          1 9PJ       0.670700
      3 N3           6.8070    10.0890    13.0150 ne         1 9PJ      -0.634100
      4 C1           5.9740    10.9350    13.5450 c2         1 9PJ       0.487300
      5 C            5.2950    11.9410    12.6430 c3         1 9PJ      -0.154400
      6 C20          6.9240     8.8870    15.1880 ce         1 9PJ       0.046300
      7 F6           7.3860     7.8160    15.8820 f          1 9PJ      -0.134500
      8 C19          6.0730     9.7530    15.7730 c2         1 9PJ      -0.232200
      9 C2           5.6150    10.9970    15.0320 c6         1 9PJ      -0.151800
     10 C3           6.2240    12.2610    15.7190 c3         1 9PJ       0.098000
     11 N            7.7080    12.2600    15.8150 n          1 9PJ      -0.320300
     12 C16          8.3180    11.8330    16.9910 c          1 9PJ       0.536200
     13 O1           7.6830    11.4560    17.9690 o          1 9PJ      -0.507000
     14 C6           9.7910    11.8620    16.9240 cc         1 9PJ      -0.018100
     15 C5          10.5280    12.2780    15.8180 cd         1 9PJ       0.090400
     16 C17         12.0630    12.3050    15.7150 c3         1 9PJ       0.196200
     17 F3          12.4790    13.1680    14.7550 f          1 9PJ      -0.084500
     18 C18         12.6750    10.9180    15.3770 c3         1 9PJ       0.145300
     19 F5          12.4370    10.0280    16.3690 f          1 9PJ      -0.093500
     20 F4          12.1070    10.4100    14.2570 f          1 9PJ      -0.093500
     21 F2          12.6460    12.7680    16.8470 f          1 9PJ      -0.084500
     22 N1           9.8090    12.7190    14.6940 nd         1 9PJ      -0.583300
     23 C4           8.4770    12.7000    14.7520 cc         1 9PJ       0.504800
     24 O           10.5590    11.4750    18.0030 os         1 9PJ      -0.207200
     25 C7          10.3350    12.2890    19.1080 ca         1 9PJ       0.116100
     26 C13         10.4070    11.7160    20.4020 ca         1 9PJ      -0.007300
     27 C14         10.6930    10.2170    20.5800 c3         1 9PJ      -0.053800
     28 C11         10.1960    12.5420    21.5360 ca         1 9PJ      -0.003000
     29 C12         10.2420    12.0080    22.8730 cg         1 9PJ       0.324000
     30 N2          10.2780    11.5850    23.9610 n1         1 9PJ      -0.445000
     31 C10          9.9340    13.9160    21.3750 ca         1 9PJ      -0.060000
     32 C9           9.8870    14.4910    20.0940 ca         1 9PJ      -0.157300
     33 C8          10.0950    13.6780    18.9660 ca         1 9PJ      -0.095000
     34 C15          9.6190    15.9840    19.9310 c3         1 9PJ       0.230600
     35 F            8.5210    16.2070    19.1740 f          1 9PJ      -0.119000
     36 F1          10.6520    16.6050    19.3190 f          1 9PJ      -0.119000
     37 H1           5.5300    11.7570    11.5880 hc         1 9PJ       0.065700
     38 H2           4.2050    11.8870    12.7500 hc         1 9PJ       0.065700
     39 H3           5.6080    12.9640    12.8750 hc         1 9PJ       0.065700
     40 H4           5.7360     9.6090    16.8030 ha         1 9PJ       0.222000
     41 H5           4.5230    11.0780    15.1200 hc         1 9PJ       0.095700
     42 H6           5.9020    13.1610    15.1770 h1         1 9PJ       0.081200
     43 H7           5.7890    12.3490    16.7240 h1         1 9PJ       0.081200
     44 H8          13.7560    11.0050    15.2270 h2         1 9PJ       0.090700
     45 H9           7.9040    13.0430    13.9000 h5         1 9PJ       0.061800
     46 H10         11.5940    10.0590    21.1860 hc         1 9PJ       0.062033
     47 H11          9.8580     9.7170    21.0850 hc         1 9PJ       0.062033
     48 H12         10.8530     9.6890    19.6340 hc         1 9PJ       0.062033
     49 H13          9.7730    14.5420    22.2520 ha         1 9PJ       0.130000
     50 H14         10.0820    14.1420    17.9830 ha         1 9PJ       0.137000
     51 H15          9.4650    16.4550    20.9080 h2         1 9PJ       0.066700
@<TRIPOS>BOND
     1     1     2 2   
     2     2     3 1   
     3     2     6 1   
     4     3     4 2   
     5     4     5 1   
     6     4     9 1   
     7     5    37 1   
     8     5    38 1   
     9     5    39 1   
    10     6     7 1   
    11     6     8 2   
    12     8     9 1   
    13     8    40 1   
    14     9    10 1   
    15     9    41 1   
    16    10    11 1   
    17    10    42 1   
    18    10    43 1   
    19    11    12 1   
    20    11    23 1   
    21    12    13 2   
    22    12    14 1   
    23    14    15 2   
    24    14    24 1   
    25    15    16 1   
    26    15    22 1   
    27    16    17 1   
    28    16    18 1   
    29    16    21 1   
    30    18    19 1   
    31    18    20 1   
    32    18    44 1   
    33    22    23 2   
    34    23    45 1   
    35    24    25 1   
    36    25    26 ar  
    37    25    33 ar  
    38    26    27 1   
    39    26    28 ar  
    40    27    46 1   
    41    27    47 1   
    42    27    48 1   
    43    28    29 1   
    44    28    31 ar  
    45    29    30 3   
    46    31    32 ar  
    47    31    49 1   
    48    32    33 ar  
    49    32    34 1   
    50    33    50 1   
    51    34    35 1   
    52    34    36 1   
    53    34    51 1   
@<TRIPOS>SUBSTRUCTURE
     1 9PJ         1 TEMP              0 ****  ****    0 ROOT
