@<TRIPOS>MOLECULE
9PK
   85    89     1     0     0
SMALL
abcg2


@<TRIPOS>ATOM
      1 C4           4.1930     1.2830     2.1810 c6         1 9PK       0.137300
      2 C5           2.8450     1.6500     2.8230 c6         1 9PK       0.144300
      3 C6           3.0320     2.5140     4.0510 c3         1 9PK       0.171600
      4 C3           3.9660     0.5320     0.8730 c6         1 9PK       0.181300
      5 CBT        -10.0140    -2.6540    -0.2780 cc         1 9PK      -0.125000
      6 CBS        -10.4330    -2.5990     1.0810 cc         1 9PK      -0.132000
      7 CBR         -9.3940    -2.4150     1.9390 cd         1 9PK      -0.245000
      8 SBQ         -7.8980    -2.3120     1.1050 ss         1 9PK       0.224000
      9 CBP         -8.6670    -2.5170    -0.4230 cd         1 9PK      -0.216300
     10 CBN         -7.8540    -2.5780    -1.6690 c3         1 9PK       0.235900
     11 OBO         -6.8790    -1.5660    -1.6100 os         1 9PK      -0.461000
     12 CBL         -4.8400    -0.6860    -2.3230 cc         1 9PK       0.191300
     13 CBH         -4.5120    -0.1350    -1.1140 cd         1 9PK      -0.151000
     14 NBK         -3.9500    -0.2450    -3.2380 nc         1 9PK      -0.352000
     15 NBJ         -3.1030     0.5350    -2.6660 nd         1 9PK      -0.207800
     16 NBI         -3.4240     0.6120    -1.3860 na         1 9PK       0.117800
     17 CAG         -2.6890     1.4570    -0.4800 c6         1 9PK       0.293300
     18 CAK         -1.1810     1.3660    -0.7240 c6         1 9PK       0.115300
     19 OBA         -0.7260     0.0590    -0.5140 oh         1 9PK      -0.711000
     20 OAY         -3.1420     2.7630    -0.6570 os         1 9PK      -0.436000
     21 CAI         -2.5900     3.6570     0.2950 c6         1 9PK       0.139300
     22 CAJ         -3.2310     5.0090     0.0740 c3         1 9PK       0.171600
     23 OBB         -4.6100     4.9070     0.3270 oh         1 9PK      -0.703000
     24 CAH         -1.0610     3.7140     0.1460 c6         1 9PK       0.137300
     25 OAZ         -0.4850     4.5000     1.1550 oh         1 9PK      -0.688000
     26 CAL         -0.4840     2.3060     0.2570 c6         1 9PK       0.174300
     27 O1           0.8950     2.3530    -0.0360 os         1 9PK      -0.444000
     28 C1           1.7320     1.6080     0.7720 c6         1 9PK       0.360300
     29 C2           3.0010     1.3000    -0.0230 c6         1 9PK       0.123300
     30 O2           2.7200     0.5160    -1.1520 oh         1 9PK      -0.713000
     31 O5           2.0510     2.3690     1.9030 os         1 9PK      -0.455000
     32 O6           1.7840     2.7200     4.6660 oh         1 9PK      -0.703000
     33 O4           4.9530     0.4590     3.0280 oh         1 9PK      -0.691000
     34 O3           5.2290     0.3800     0.2530 os         1 9PK      -0.449000
     35 CAM          5.4640    -0.7920    -0.4400 c6         1 9PK       0.364300
     36 OBD          5.6170    -1.8400     0.4820 os         1 9PK      -0.460000
     37 CAO          5.7850    -3.0920    -0.1470 c6         1 9PK       0.179300
     38 CAP          5.7700    -4.1630     0.9220 c3         1 9PK       0.172600
     39 OBG          4.5080    -4.1690     1.5430 oh         1 9PK      -0.710000
     40 CAN          7.0960    -3.0830    -0.9350 c6         1 9PK       0.141300
     41 OBE          7.2270    -4.3180    -1.5950 oh         1 9PK      -0.719000
     42 CAR          7.0880    -1.9250    -1.9280 c6         1 9PK       0.139300
     43 OBC          8.3510    -1.8960    -2.5490 oh         1 9PK      -0.667000
     44 CAQ          6.7600    -0.6140    -1.2270 c6         1 9PK       0.116300
     45 OBF          6.6480     0.3820    -2.2110 oh         1 9PK      -0.722000
     46 H1           4.7260     2.2170     1.9480 h1         1 9PK       0.049700
     47 H2           2.3360     0.7160     3.1150 h1         1 9PK       0.065700
     48 H3           3.7300     2.0060     4.7270 h1         1 9PK       0.024700
     49 H4           3.5030     3.4600     3.7510 h1         1 9PK       0.024700
     50 H5           3.5290    -0.4490     1.1080 h1         1 9PK       0.088700
     51 H7         -11.4630    -2.6810     1.3980 ha         1 9PK       0.133000
     52 H8          -9.4270    -2.3180     3.0130 h4         1 9PK       0.149000
     53 H9          -7.3740    -3.5620    -1.7630 h1         1 9PK       0.037200
     54 H10         -8.5150    -2.4610    -2.5370 h1         1 9PK       0.037200
     55 H11         -5.5410    -2.6510    -2.7550 h1         1 9PK       0.043200
     56 H12         -6.3850    -1.3700    -3.6200 h1         1 9PK       0.043200
     57 H13         -4.9410    -0.2100    -0.1300 h4         1 9PK       0.181000
     58 H14         -2.9150     1.0920     0.5310 h2         1 9PK       0.067700
     59 H15         -0.9700     1.7150    -1.7420 h1         1 9PK       0.079700
     60 H16         -0.7070    -0.4070    -1.3540 ho         1 9PK       0.528000
     61 H17         -2.8250     3.3070     1.3130 h1         1 9PK       0.067700
     62 H18         -2.7510     5.7300     0.7450 h1         1 9PK       0.029700
     63 H19         -3.0250     5.3390    -0.9540 h1         1 9PK       0.029700
     64 H20         -5.0010     5.7730     0.1850 ho         1 9PK       0.508000
     65 H21         -0.8250     4.1060    -0.8540 h1         1 9PK       0.055700
     66 H22         -0.4460     5.4130     0.8570 ho         1 9PK       0.507000
     67 H23         -0.6500     1.9440     1.2820 h1         1 9PK       0.079700
     68 H24          1.2540     0.6630     1.0810 h2         1 9PK       0.055700
     69 H25          3.4670     2.2580    -0.3020 h1         1 9PK       0.058700
     70 H26          2.1220     1.0100    -1.7220 ho         1 9PK       0.520000
     71 H27          1.9290     3.2330     5.4660 ho         1 9PK       0.503000
     72 H28          5.5030     1.0120     3.5890 ho         1 9PK       0.504000
     73 H29          4.6410    -1.0260    -1.1330 h2         1 9PK       0.058700
     74 H30          4.9560    -3.2780    -0.8510 h1         1 9PK       0.060700
     75 H31          5.9920    -5.1250     0.4490 h1         1 9PK       0.035700
     76 H32          6.5790    -3.9620     1.6390 h1         1 9PK       0.035700
     77 H33          4.4690    -4.9330     2.1260 ho         1 9PK       0.502000
     78 H34          7.9220    -2.9250    -0.2230 h1         1 9PK       0.055700
     79 H35          8.0460    -4.3020    -2.1010 ho         1 9PK       0.524000
     80 H36          6.2940    -2.1240    -2.6660 h1         1 9PK       0.053700
     81 H37          8.3070    -1.3150    -3.3140 ho         1 9PK       0.465000
     82 H38          7.5630    -0.3850    -0.5090 h1         1 9PK       0.063700
     83 H39          6.5510     1.2340    -1.7730 ho         1 9PK       0.523000
     84 CBM         -5.9410    -1.6320    -2.6510 c3         1 9PK       0.147300
     85 H6         -10.6880    -2.7880    -1.1130 ha         1 9PK       0.132000
@<TRIPOS>BOND
     1     1     2 1   
     2     1     4 1   
     3     1    33 1   
     4     1    46 1   
     5     2     3 1   
     6     2    31 1   
     7     2    47 1   
     8     3    32 1   
     9     3    48 1   
    10     3    49 1   
    11     4    29 1   
    12     4    34 1   
    13     4    50 1   
    14     5     6 1   
    15     5     9 2   
    16     5    85 1   
    17     6     7 2   
    18     6    51 1   
    19     7     8 1   
    20     7    52 1   
    21     8     9 1   
    22     9    10 1   
    23    10    11 1   
    24    10    53 1   
    25    10    54 1   
    26    11    84 1   
    27    12    13 2   
    28    12    14 1   
    29    12    84 1   
    30    13    16 1   
    31    13    57 1   
    32    14    15 2   
    33    15    16 1   
    34    16    17 1   
    35    17    18 1   
    36    17    20 1   
    37    17    58 1   
    38    18    19 1   
    39    18    26 1   
    40    18    59 1   
    41    19    60 1   
    42    20    21 1   
    43    21    22 1   
    44    21    24 1   
    45    21    61 1   
    46    22    23 1   
    47    22    62 1   
    48    22    63 1   
    49    23    64 1   
    50    24    25 1   
    51    24    26 1   
    52    24    65 1   
    53    25    66 1   
    54    26    27 1   
    55    26    67 1   
    56    27    28 1   
    57    28    29 1   
    58    28    31 1   
    59    28    68 1   
    60    29    30 1   
    61    29    69 1   
    62    30    70 1   
    63    32    71 1   
    64    33    72 1   
    65    34    35 1   
    66    35    36 1   
    67    35    44 1   
    68    35    73 1   
    69    36    37 1   
    70    37    38 1   
    71    37    40 1   
    72    37    74 1   
    73    38    39 1   
    74    38    75 1   
    75    38    76 1   
    76    39    77 1   
    77    40    41 1   
    78    40    42 1   
    79    40    78 1   
    80    41    79 1   
    81    42    43 1   
    82    42    44 1   
    83    42    80 1   
    84    43    81 1   
    85    44    45 1   
    86    44    82 1   
    87    45    83 1   
    88    55    84 1   
    89    56    84 1   
@<TRIPOS>SUBSTRUCTURE
     1 9PK         1 TEMP              0 ****  ****    0 ROOT
