@<TRIPOS>MOLECULE
9PK
   85    89     1     0     0
SMALL
No Charge or Current Charge


@<TRIPOS>ATOM
      1 C4           3.7740     1.0940     2.5380 c6         1 9PK       0.137300
      2 C5           2.2660     1.3110     2.8730 c6         1 9PK       0.144300
      3 C6           2.0500     1.9560     4.2810 c3         1 9PK       0.171600
      4 C3           3.9200     0.5380     1.0900 c6         1 9PK       0.181300
      5 CBT         -9.2670    -2.3530     0.9720 cc         1 9PK      -0.125000
      6 CBS         -9.4120    -2.8120     2.3040 cc         1 9PK      -0.132000
      7 CBR         -8.5380    -3.8130     2.6390 cd         1 9PK      -0.245000
      8 SBQ         -7.4800    -4.2270     1.2760 ss         1 9PK       0.224000
      9 CBP         -8.2790    -3.0010     0.2740 cd         1 9PK      -0.216300
     10 CBN         -7.8510    -2.7760    -1.1500 c3         1 9PK       0.235900
     11 OBO         -6.7290    -1.8820    -1.1410 os         1 9PK      -0.461000
     12 CBL         -5.0370    -0.6130    -2.3050 cc         1 9PK       0.191300
     13 CBH         -4.6640     0.1100    -1.2120 cd         1 9PK      -0.151000
     14 NBK         -4.1840    -0.3750    -3.3490 nc         1 9PK      -0.352000
     15 NBJ         -3.2730     0.4800    -2.9570 nd         1 9PK      -0.207800
     16 NBI         -3.5470     0.7870    -1.6450 na         1 9PK       0.117800
     17 CAG         -2.7340     1.7270    -0.8310 c6         1 9PK       0.293300
     18 CAK         -1.1920     1.5130    -1.0210 c6         1 9PK       0.115300
     19 OBA         -0.7870     0.1700    -0.6530 oh         1 9PK      -0.711000
     20 OAY         -3.1070     3.0770    -1.2020 os         1 9PK      -0.436000
     21 CAI         -2.4760     4.1120    -0.4060 c6         1 9PK       0.139300
     22 CAJ         -3.0570     5.4950    -0.8490 c3         1 9PK       0.171600
     23 OBB         -4.4940     5.5630    -0.7510 oh         1 9PK      -0.703000
     24 CAH         -0.9310     4.0290    -0.5830 c6         1 9PK       0.137300
     25 OAZ         -0.2400     5.0240     0.1960 oh         1 9PK      -0.688000
     26 CAL         -0.4350     2.6060    -0.1910 c6         1 9PK       0.174300
     27 O1           1.0110     2.5530    -0.3370 os         1 9PK      -0.444000
     28 C1           1.7020     1.6420     0.5410 c6         1 9PK       0.360300
     29 C2           3.1870     1.4840     0.0790 c6         1 9PK       0.123300
     30 O2           3.2690     1.0340    -1.2950 oh         1 9PK      -0.713000
     31 O5           1.6700     2.1800     1.8750 os         1 9PK      -0.455000
     32 O6           0.6640     2.2140     4.5810 oh         1 9PK      -0.703000
     33 O4           4.4190     0.2130     3.4770 oh         1 9PK      -0.691000
     34 O3           5.3320     0.3440     0.7970 os         1 9PK      -0.449000
     35 CAM          5.6420    -0.6770    -0.1710 c6         1 9PK       0.364300
     36 OBD          5.4030    -1.9650     0.4290 os         1 9PK      -0.460000
     37 CAO          5.6090    -3.0800    -0.4800 c6         1 9PK       0.179300
     38 CAP          5.2040    -4.4000     0.2560 c3         1 9PK       0.172600
     39 OBG          3.8500    -4.3840     0.7580 oh         1 9PK      -0.710000
     40 CAN          7.0950    -3.1000    -0.9670 c6         1 9PK       0.141300
     41 OBE          7.3440    -4.1470    -1.9240 oh         1 9PK      -0.719000
     42 CAR          7.4560    -1.7190    -1.5930 c6         1 9PK       0.139300
     43 OBC          8.8410    -1.6800    -1.9790 oh         1 9PK      -0.667000
     44 CAQ          7.1460    -0.5780    -0.5850 c6         1 9PK       0.116300
     45 OBF          7.4850     0.7120    -1.1490 oh         1 9PK      -0.722000
     46 H1           4.2670     2.0770     2.5680 h1         1 9PK       0.049700
     47 H2           1.7440     0.3430     2.8580 h1         1 9PK       0.065700
     48 H3           2.4730     1.2840     5.0390 h1         1 9PK       0.024700
     49 H4           2.6220     2.8930     4.3200 h1         1 9PK       0.024700
     50 H5           3.4190    -0.4420     1.0640 h1         1 9PK       0.088700
     51 H7         -10.1520    -2.3960     2.9830 ha         1 9PK       0.133000
     52 H8          -8.4400    -4.3340     3.5840 h4         1 9PK       0.149000
     53 H9          -7.5810    -3.7370    -1.6070 h1         1 9PK       0.037200
     54 H10         -8.6870    -2.3460    -1.7190 h1         1 9PK       0.037200
     55 H11         -5.8750    -2.4680    -2.9640 h1         1 9PK       0.043200
     56 H12         -6.9800    -1.0780    -3.0620 h1         1 9PK       0.043200
     57 H13         -5.0870     0.1850    -0.2190 h4         1 9PK       0.181000
     58 H14         -3.0090     1.5410     0.2180 h2         1 9PK       0.067700
     59 H15         -0.9570     1.6940    -2.0810 h1         1 9PK       0.079700
     60 H16         -1.0560    -0.4340    -1.3860 ho         1 9PK       0.528000
     61 H17         -2.7350     3.9560     0.6520 h1         1 9PK       0.067700
     62 H18         -2.6050     6.2760    -0.2240 h1         1 9PK       0.029700
     63 H19         -2.7420     5.6820    -1.8850 h1         1 9PK       0.029700
     64 H20         -4.7650     6.4390    -1.1120 ho         1 9PK       0.508000
     65 H21         -0.7050     4.1810    -1.6490 h1         1 9PK       0.055700
     66 H22          0.6780     4.6780     0.3110 ho         1 9PK       0.507000
     67 H23         -0.6850     2.4580     0.8710 h1         1 9PK       0.079700
     68 H24          1.2190     0.6550     0.5290 h2         1 9PK       0.055700
     69 H25          3.6560     2.4760     0.1590 h1         1 9PK       0.058700
     70 H26          2.6330     1.5920    -1.8030 ho         1 9PK       0.520000
     71 H27          0.6400     2.6740     5.4530 ho         1 9PK       0.503000
     72 H28          5.2320    -0.1110     3.0200 ho         1 9PK       0.504000
     73 H29          5.0170    -0.5630    -1.0670 h2         1 9PK       0.058700
     74 H30          4.9430    -2.9570    -1.3480 h1         1 9PK       0.060700
     75 H31          5.3310    -5.2370    -0.4430 h1         1 9PK       0.035700
     76 H32          5.9090    -4.5580     1.0830 h1         1 9PK       0.035700
     77 H33          3.7180    -5.2250     1.2550 ho         1 9PK       0.502000
     78 H34          7.7350    -3.2510    -0.0840 h1         1 9PK       0.055700
     79 H35          8.1890    -3.8890    -2.3670 ho         1 9PK       0.524000
     80 H36          6.8220    -1.5670    -2.4800 h1         1 9PK       0.053700
     81 H37          9.0550    -0.7190    -2.0390 ho         1 9PK       0.465000
     82 H38          7.7450    -0.7510     0.3230 h1         1 9PK       0.063700
     83 H39          7.0620     1.3870    -0.5640 ho         1 9PK       0.523000
     84 CBM         -6.2090    -1.5590    -2.4460 c3         1 9PK       0.147300
     85 H6          -9.8860    -1.5620     0.5590 ha         1 9PK       0.132000
@<TRIPOS>BOND
     1     1     2 1   
     2     1     4 1   
     3     1    33 1   
     4     1    46 1   
     5     2     3 1   
     6     2    31 1   
     7     2    47 1   
     8     3    32 1   
     9     3    48 1   
    10     3    49 1   
    11     4    29 1   
    12     4    34 1   
    13     4    50 1   
    14     5     6 1   
    15     5     9 2   
    16     5    85 1   
    17     6     7 2   
    18     6    51 1   
    19     7     8 1   
    20     7    52 1   
    21     8     9 1   
    22     9    10 1   
    23    10    11 1   
    24    10    53 1   
    25    10    54 1   
    26    11    84 1   
    27    12    13 2   
    28    12    14 1   
    29    12    84 1   
    30    13    16 1   
    31    13    57 1   
    32    14    15 2   
    33    15    16 1   
    34    16    17 1   
    35    17    18 1   
    36    17    20 1   
    37    17    58 1   
    38    18    19 1   
    39    18    26 1   
    40    18    59 1   
    41    19    60 1   
    42    20    21 1   
    43    21    22 1   
    44    21    24 1   
    45    21    61 1   
    46    22    23 1   
    47    22    62 1   
    48    22    63 1   
    49    23    64 1   
    50    24    25 1   
    51    24    26 1   
    52    24    65 1   
    53    25    66 1   
    54    26    27 1   
    55    26    67 1   
    56    27    28 1   
    57    28    29 1   
    58    28    31 1   
    59    28    68 1   
    60    29    30 1   
    61    29    69 1   
    62    30    70 1   
    63    32    71 1   
    64    33    72 1   
    65    34    35 1   
    66    35    36 1   
    67    35    44 1   
    68    35    73 1   
    69    36    37 1   
    70    37    38 1   
    71    37    40 1   
    72    37    74 1   
    73    38    39 1   
    74    38    75 1   
    75    38    76 1   
    76    39    77 1   
    77    40    41 1   
    78    40    42 1   
    79    40    78 1   
    80    41    79 1   
    81    42    43 1   
    82    42    44 1   
    83    42    80 1   
    84    43    81 1   
    85    44    45 1   
    86    44    82 1   
    87    45    83 1   
    88    55    84 1   
    89    56    84 1   
@<TRIPOS>SUBSTRUCTURE
     1 9PK         1 TEMP              0 ****  ****    0 ROOT
