@<TRIPOS>MOLECULE
9PL
   31    32     1     0     0
SMALL
abcg2


@<TRIPOS>ATOM
      1 N1          -2.8040    -0.6230    -0.1140 na         1 9PL      -0.166500
      2 C2          -3.9660     0.0660    -0.1170 cc         1 9PL       0.394400
      3 N3          -3.8460     1.2360     0.4530 nd         1 9PL      -0.666000
      4 C4          -2.5400     1.3080     0.8450 cd         1 9PL       0.239900
      5 C5          -1.8670     0.1650     0.5050 cc         1 9PL      -0.216300
      6 C6          -2.6070    -1.9560    -0.6360 c3         1 9PL       0.057900
      7 C7          -0.4440    -0.2260     0.6880 c3         1 9PL       0.002900
      8 C8           0.4020    -0.0550    -0.5840 c5         1 9PL      -0.093700
      9 C9           0.5420     1.4050    -0.9960 c5         1 9PL       0.153600
     10 O10          1.6760     1.8910    -0.2570 os         1 9PL      -0.424100
     11 C11          2.4590     0.8770     0.1160 c          1 9PL       0.652100
     12 C12          1.8770    -0.4270    -0.3810 c5         1 9PL      -0.179700
     13 C13          2.1940    -1.6490     0.4730 c3         1 9PL      -0.050400
     14 C14          3.6210    -2.1520     0.2990 c3         1 9PL      -0.094100
     15 O15          3.4610     1.0670     0.7520 o          1 9PL      -0.488000
     16 H2          -4.8680    -0.3430    -0.5470 h5         1 9PL       0.054100
     17 H4          -2.1400     2.1710     1.3560 h4         1 9PL       0.041100
     18 H6          -1.9300    -1.9520    -1.4890 h1         1 9PL       0.052033
     19 H6A         -2.2030    -2.6140     0.1310 h1         1 9PL       0.052033
     20 H6B         -3.5650    -2.3550    -0.9600 h1         1 9PL       0.052033
     21 H7          -0.0310     0.3740     1.5040 hc         1 9PL       0.062700
     22 H7A         -0.3820    -1.2640     1.0230 hc         1 9PL       0.062700
     23 H8          -0.0350    -0.6380    -1.3950 hc         1 9PL       0.067700
     24 H9           0.7460     1.5060    -2.0640 h1         1 9PL       0.070200
     25 H9A         -0.3160     2.0260    -0.7440 h1         1 9PL       0.070200
     26 H12          2.3100    -0.5850    -1.3800 hc         1 9PL       0.079700
     27 H13          1.9990    -1.4380     1.5270 hc         1 9PL       0.043700
     28 H13A         1.5020    -2.4460     0.1880 hc         1 9PL       0.043700
     29 H14          3.8180    -2.4090    -0.7430 hc         1 9PL       0.041700
     30 H14A         4.3520    -1.4050     0.6030 hc         1 9PL       0.041700
     31 H14B         3.7910    -3.0460     0.9000 hc         1 9PL       0.041700
@<TRIPOS>BOND
     1     1     2 1   
     2     1     5 1   
     3     1     6 1   
     4     2     3 2   
     5     2    16 1   
     6     3     4 1   
     7     4     5 2   
     8     4    17 1   
     9     5     7 1   
    10     6    18 1   
    11     6    19 1   
    12     6    20 1   
    13     7     8 1   
    14     7    21 1   
    15     7    22 1   
    16     8     9 1   
    17     8    12 1   
    18     8    23 1   
    19     9    10 1   
    20     9    24 1   
    21     9    25 1   
    22    10    11 1   
    23    11    12 1   
    24    11    15 2   
    25    12    13 1   
    26    12    26 1   
    27    13    14 1   
    28    13    27 1   
    29    13    28 1   
    30    14    29 1   
    31    14    30 1   
    32    14    31 1   
@<TRIPOS>SUBSTRUCTURE
     1 9PL         1 TEMP              0 ****  ****    0 ROOT
