@<TRIPOS>MOLECULE
9PL
   31    32     1     0     0
SMALL
No Charge or Current Charge


@<TRIPOS>ATOM
      1 N1          -2.8840    -0.5640    -0.1020 na         1 9PL      -0.166500
      2 C2          -4.0390     0.1900    -0.0570 cc         1 9PL       0.394400
      3 N3          -3.8320     1.3390     0.5700 nd         1 9PL      -0.666000
      4 C4          -2.5020     1.3270     0.9390 cd         1 9PL       0.239900
      5 C5          -1.8940     0.1650     0.5300 cc         1 9PL      -0.216300
      6 C6          -2.7520    -1.8960    -0.7130 c3         1 9PL       0.057900
      7 C7          -0.4610    -0.2670     0.7210 c3         1 9PL       0.002900
      8 C8           0.3950    -0.1690    -0.5730 c5         1 9PL      -0.093700
      9 C9           0.5330     1.2810    -1.1340 c5         1 9PL       0.153600
     10 O10          1.5910     1.8810    -0.3460 os         1 9PL      -0.424100
     11 C11          2.3940     0.9010     0.1680 c          1 9PL       0.652100
     12 C12          1.9140    -0.4480    -0.3970 c5         1 9PL      -0.179700
     13 C13          2.3100    -1.7110     0.4160 c3         1 9PL      -0.050400
     14 C14          3.8080    -2.0740     0.3460 c3         1 9PL      -0.094100
     15 O15          3.2150     1.1070     1.0490 o          1 9PL      -0.488000
     16 H2          -4.9740    -0.1500    -0.4880 h5         1 9PL       0.054100
     17 H4          -2.0550     2.1550     1.4760 h4         1 9PL       0.041100
     18 H6          -2.2550    -1.8060    -1.6870 h1         1 9PL       0.052033
     19 H6A         -2.1600    -2.5490    -0.0610 h1         1 9PL       0.052033
     20 H6B         -3.7450    -2.3400    -0.8560 h1         1 9PL       0.052033
     21 H7          -0.0110     0.3410     1.5170 hc         1 9PL       0.062700
     22 H7A         -0.4460    -1.2970     1.0970 hc         1 9PL       0.062700
     23 H8          -0.0530    -0.8400    -1.3150 hc         1 9PL       0.067700
     24 H9           0.8430     1.2710    -2.1880 h1         1 9PL       0.070200
     25 H9A         -0.3870     1.8750    -1.0520 h1         1 9PL       0.070200
     26 H12          2.3340    -0.5410    -1.4060 hc         1 9PL       0.079700
     27 H13          2.0290    -1.5870     1.4690 hc         1 9PL       0.043700
     28 H13A         1.7380    -2.5710     0.0450 hc         1 9PL       0.043700
     29 H14          4.1190    -2.2390    -0.6920 hc         1 9PL       0.041700
     30 H14A         4.4300    -1.2790     0.7710 hc         1 9PL       0.041700
     31 H14B         4.0020    -2.9940     0.9100 hc         1 9PL       0.041700
@<TRIPOS>BOND
     1     1     2 1   
     2     1     5 1   
     3     1     6 1   
     4     2     3 2   
     5     2    16 1   
     6     3     4 1   
     7     4     5 2   
     8     4    17 1   
     9     5     7 1   
    10     6    18 1   
    11     6    19 1   
    12     6    20 1   
    13     7     8 1   
    14     7    21 1   
    15     7    22 1   
    16     8     9 1   
    17     8    12 1   
    18     8    23 1   
    19     9    10 1   
    20     9    24 1   
    21     9    25 1   
    22    10    11 1   
    23    11    12 1   
    24    11    15 2   
    25    12    13 1   
    26    12    26 1   
    27    13    14 1   
    28    13    27 1   
    29    13    28 1   
    30    14    29 1   
    31    14    30 1   
    32    14    31 1   
@<TRIPOS>SUBSTRUCTURE
     1 9PL         1 TEMP              0 ****  ****    0 ROOT
