@<TRIPOS>MOLECULE
9PM
   41    43     1     0     0
SMALL
bcc


@<TRIPOS>ATOM
      1 N28          8.4740    -0.4700    -0.7700 n1         1 9PM      -0.347800
      2 C27          7.3670    -0.5000    -0.4520 cg         1 9PM       0.235800
      3 C24          5.9980    -0.5670    -0.0650 ca         1 9PM      -0.014000
      4 C23          5.3300     0.5640     0.4060 ca         1 9PM       0.058400
      5 CL2          6.1710     2.0630     0.5220 cl         1 9PM      -0.080400
      6 C22          4.0030     0.4900     0.7830 ca         1 9PM      -0.127000
      7 C25          5.3090    -1.7770    -0.1510 ca         1 9PM      -0.080000
      8 C26          3.9820    -1.8460     0.2280 ca         1 9PM      -0.130000
      9 C21          3.3140    -0.7170     0.6990 ca         1 9PM      -0.046300
     10 C14          1.8610    -0.7850     1.0590 c3         1 9PM      -0.042100
     11 C13          0.9810    -0.4960    -0.1570 c3         1 9PM       0.160800
     12 N12         -0.4200    -0.5740     0.2010 n7         1 9PM      -0.808200
     13 C11         -1.3000    -0.3280    -0.9270 c3         1 9PM       0.203100
     14 C08         -2.7410    -0.4780    -0.5250 ca         1 9PM      -0.069300
     15 C09         -3.6380     0.5450    -0.7100 ca         1 9PM      -0.183300
     16 C07         -3.1760    -1.6920     0.0530 ca         1 9PM      -0.123000
     17 C06         -4.4860    -1.8550     0.4170 ca         1 9PM      -0.098000
     18 C05         -5.4180    -0.8140     0.2290 ca         1 9PM      -0.190300
     19 C04         -6.7850    -0.9180     0.5880 ca         1 9PM      -0.048000
     20 C03         -7.6230     0.1300     0.3800 ca         1 9PM      -0.292300
     21 C02         -7.0960     1.3260    -0.2000 ca         1 9PM       0.678200
     22 N02         -7.9360     2.3650    -0.4460 nv         1 9PM      -0.954500
     23 N01         -5.8350     1.4520    -0.5410 nb         1 9PM      -0.759000
     24 C10         -4.9960     0.4090    -0.3420 ca         1 9PM       0.454600
     25 H1           3.5010     1.3770     1.1500 ha         1 9PM       0.151000
     26 H2           5.8220    -2.6580    -0.5110 ha         1 9PM       0.149000
     27 H3           3.4590    -2.7910     0.1600 ha         1 9PM       0.144000
     28 H4           1.6170    -1.7760     1.4480 hc         1 9PM       0.060700
     29 H5           1.6390    -0.0610     1.8470 hc         1 9PM       0.060700
     30 H6           1.2630     0.4800    -0.5830 h1         1 9PM       0.034700
     31 H7           1.1810    -1.2420    -0.9320 h1         1 9PM       0.034700
     32 H8          -0.6160     0.1100     0.9220 hn         1 9PM       0.356800
     33 H10         -1.1460     0.6590    -1.3870 h1         1 9PM       0.039700
     34 H11         -1.0640    -1.0670    -1.7010 h1         1 9PM       0.039700
     35 H12         -3.3150     1.4850    -1.1430 ha         1 9PM       0.143000
     36 H13         -2.4630    -2.4920     0.2060 ha         1 9PM       0.144000
     37 H14         -4.8220    -2.7880     0.8540 ha         1 9PM       0.130000
     38 H15         -7.1550    -1.8370     1.0270 ha         1 9PM       0.135000
     39 H16         -8.6710     0.0720     0.6420 ha         1 9PM       0.138000
     40 H17         -8.8090     2.4030     0.0520 hn         1 9PM       0.420300
     41 H18         -7.5160     3.2590    -0.6360 hn         1 9PM       0.420300
@<TRIPOS>BOND
     1     1     2 3   
     2     2     3 1   
     3     3     4 ar  
     4     3     7 ar  
     5     4     5 1   
     6     4     6 ar  
     7     6     9 ar  
     8     6    25 1   
     9     7     8 ar  
    10     7    26 1   
    11     8     9 ar  
    12     8    27 1   
    13     9    10 1   
    14    10    11 1   
    15    10    28 1   
    16    10    29 1   
    17    11    12 1   
    18    11    30 1   
    19    11    31 1   
    20    12    13 1   
    21    12    32 1   
    22    13    14 1   
    23    13    33 1   
    24    13    34 1   
    25    14    15 ar  
    26    14    16 ar  
    27    15    24 ar  
    28    15    35 1   
    29    16    17 ar  
    30    16    36 1   
    31    17    18 ar  
    32    17    37 1   
    33    18    19 ar  
    34    18    24 ar  
    35    19    20 ar  
    36    19    38 1   
    37    20    21 ar  
    38    20    39 1   
    39    21    22 1   
    40    21    23 ar  
    41    22    40 1   
    42    22    41 1   
    43    23    24 ar  
@<TRIPOS>SUBSTRUCTURE
     1 9PM         1 TEMP              0 ****  ****    0 ROOT
