@<TRIPOS>MOLECULE
9PM
   41    43     1     0     0
SMALL
No Charge or Current Charge


@<TRIPOS>ATOM
      1 N28          8.6100    -0.3560    -0.3790 n1         1 9PM      -0.437000
      2 C27          7.4640    -0.3760    -0.1510 cg         1 9PM       0.325000
      3 C24          6.0560    -0.4170     0.1290 ca         1 9PM      -0.014000
      4 C23          5.3070     0.7700     0.2740 ca         1 9PM       0.150000
      5 Cl2          6.0610     2.3600     0.1180 cl         1 9PM      -0.172000
      6 C22          3.9300     0.7050     0.5470 ca         1 9PM      -0.109000
      7 C25          5.4100    -1.6630     0.2600 ca         1 9PM      -0.062000
      8 C26          4.0320    -1.7220     0.5340 ca         1 9PM      -0.112000
      9 C21          3.2850    -0.5390     0.6800 ca         1 9PM      -0.046300
     10 C14          1.7910    -0.6040     0.9710 c3         1 9PM      -0.042100
     11 C13          0.9530    -0.6260    -0.3220 c3         1 9PM       0.160800
     12 N12         -0.4860    -0.6970    -0.0050 n7         1 9PM      -0.863400
     13 C11         -1.3820    -0.7540    -1.1740 c3         1 9PM       0.203100
     14 C08         -2.8370    -0.7980    -0.7290 ca         1 9PM      -0.069300
     15 C09         -3.6040     0.3840    -0.6830 ca         1 9PM      -0.100000
     16 C07         -3.4290    -2.0200    -0.3610 ca         1 9PM      -0.105000
     17 C06         -4.7720    -2.0620     0.0470 ca         1 9PM      -0.080000
     18 C05         -5.5320    -0.8780     0.0900 ca         1 9PM      -0.125000
     19 C04         -6.8770    -0.9180     0.4990 ca         1 9PM      -0.030000
     20 C03         -7.5910     0.2880     0.5250 ca         1 9PM      -0.209000
     21 C02         -6.9260     1.4540     0.1410 ca         1 9PM       0.612900
     22 N02         -7.4930     2.6620     0.1310 nv         1 9PM      -1.064900
     23 N01         -5.6590     1.5210    -0.2450 nb         1 9PM      -0.759000
     24 C10         -4.9520     0.3660    -0.2770 ca         1 9PM       0.324000
     25 H1           3.3630     1.6270     0.6540 ha         1 9PM       0.133000
     26 H2           5.9750    -2.5870     0.1500 ha         1 9PM       0.131000
     27 H3           3.5460    -2.6910     0.6300 ha         1 9PM       0.126000
     28 H4           1.5620    -1.4990     1.5620 hc         1 9PM       0.060700
     29 H5           1.4900     0.2550     1.5830 hc         1 9PM       0.060700
     30 H6           1.1740     0.2780    -0.9070 h1         1 9PM       0.034700
     31 H7           1.2550    -1.4940    -0.9250 h1         1 9PM       0.034700
     32 H8          -0.7380     0.1350     0.5410 hn         1 9PM       0.412000
     33 H10         -1.2280     0.1220    -1.8190 h1         1 9PM       0.039700
     34 H11         -1.1660    -1.6450    -1.7790 h1         1 9PM       0.039700
     35 H12         -3.1520     1.3310    -0.9640 ha         1 9PM       0.125000
     36 H13         -2.8450    -2.9370    -0.3890 ha         1 9PM       0.126000
     37 H14         -5.2180    -3.0130     0.3300 ha         1 9PM       0.112000
     38 H15         -7.3540    -1.8520     0.7880 ha         1 9PM       0.117000
     39 H16         -8.6310     0.3160     0.8310 ha         1 9PM       0.120000
     40 H17         -8.3030     2.7990     0.7240 hn         1 9PM       0.475500
     41 H18         -6.8440     3.4370     0.0640 hn         1 9PM       0.475500
@<TRIPOS>BOND
     1     1     2 3   
     2     2     3 1   
     3     3     4 ar  
     4     3     7 ar  
     5     4     5 1   
     6     4     6 ar  
     7     6     9 ar  
     8     6    25 1   
     9     7     8 ar  
    10     7    26 1   
    11     8     9 ar  
    12     8    27 1   
    13     9    10 1   
    14    10    11 1   
    15    10    28 1   
    16    10    29 1   
    17    11    12 1   
    18    11    30 1   
    19    11    31 1   
    20    12    13 1   
    21    12    32 1   
    22    13    14 1   
    23    13    33 1   
    24    13    34 1   
    25    14    15 ar  
    26    14    16 ar  
    27    15    24 ar  
    28    15    35 1   
    29    16    17 ar  
    30    16    36 1   
    31    17    18 ar  
    32    17    37 1   
    33    18    19 ar  
    34    18    24 ar  
    35    19    20 ar  
    36    19    38 1   
    37    20    21 ar  
    38    20    39 1   
    39    21    22 1   
    40    21    23 ar  
    41    22    40 1   
    42    22    41 1   
    43    23    24 ar  
@<TRIPOS>SUBSTRUCTURE
     1 9PM         1 TEMP              0 ****  ****    0 ROOT
