@<TRIPOS>MOLECULE
9PN
   90    94     1     0     0
SMALL
No Charge or Current Charge


@<TRIPOS>ATOM
      1 C4           4.6590     2.0110     1.6830 c6         1 9PN       0.133300
      2 C5           3.2630     2.5280     2.1540 c6         1 9PN       0.141300
      3 C6           3.3650     3.8380     3.0030 c3         1 9PN       0.171600
      4 C3           4.4680     0.7680     0.7640 c6         1 9PN       0.185300
      5 CBP        -10.2730    -3.1150    -0.6650 ca         1 9PN      -0.009300
      6 CBO        -11.5310    -2.8510    -1.2410 ca         1 9PN      -0.114000
      7 CBT        -12.3470    -1.8370    -0.7080 ca         1 9PN       0.010000
      8 CBS        -11.8950    -1.0930     0.3970 ca         1 9PN      -0.114000
      9 CBR        -10.6340    -1.3710     0.9600 ca         1 9PN      -0.060000
     10 NBQ         -9.8210    -2.3810     0.4360 na         1 9PN       0.068300
     11 CBN         -8.4920    -2.6480     1.0180 c3         1 9PN       0.024600
     12 CBU         -7.3700    -1.8070     0.3670 c3         1 9PN      -0.099400
     13 CBL         -4.8870    -1.2590     0.3430 cc         1 9PN       0.167300
     14 CBH         -4.2940    -0.1400     0.8390 cd         1 9PN      -0.161000
     15 NBK         -4.3570    -1.5890    -0.8720 nc         1 9PN      -0.362000
     16 NBJ         -3.4400    -0.7060    -1.1770 nd         1 9PN      -0.180800
     17 NBI         -3.3820     0.1910    -0.1370 na         1 9PN       0.130800
     18 CAG         -2.4530     1.3490    -0.1020 c6         1 9PN       0.290300
     19 CAK         -0.9830     0.9500    -0.4730 c6         1 9PN       0.115300
     20 OBA         -0.4510    -0.0510     0.4320 oh         1 9PN      -0.707000
     21 OAY         -2.9510     2.3520    -1.0220 os         1 9PN      -0.445000
     22 CAI         -2.2020     3.5950    -1.0180 c6         1 9PN       0.138300
     23 CAJ         -2.9180     4.6040    -1.9740 c3         1 9PN       0.170600
     24 OBB         -4.3010     4.8290    -1.6290 oh         1 9PN      -0.712000
     25 CAH         -0.7300     3.3120    -1.4430 c6         1 9PN       0.138300
     26 OAZ          0.0750     4.5070    -1.4420 oh         1 9PN      -0.681000
     27 CAL         -0.1080     2.2490    -0.4920 c6         1 9PN       0.177300
     28 O1           1.2720     2.0140    -0.8820 os         1 9PN      -0.442000
     29 C1           2.1710     1.6390     0.1790 c6         1 9PN       0.363300
     30 C2           3.5200     1.1330    -0.4240 c6         1 9PN       0.123300
     31 O2           3.3250     0.0390    -1.3560 oh         1 9PN      -0.715000
     32 O5           2.4250     2.7950     0.9980 os         1 9PN      -0.454000
     33 O6           2.0800     4.3570     3.4030 oh         1 9PN      -0.707000
     34 O4           5.5230     1.6860     2.7900 oh         1 9PN      -0.686000
     35 O3           5.7600     0.2740     0.3300 os         1 9PN      -0.445000
     36 CAM          5.8100    -1.1210    -0.0200 c6         1 9PN       0.370300
     37 OBD          6.6050    -1.8020     0.9660 os         1 9PN      -0.452000
     38 CAO          6.6710    -3.2410     0.7760 c6         1 9PN       0.180300
     39 CAP          7.4730    -3.8620     1.9670 c3         1 9PN       0.172600
     40 OBG          6.9220    -3.5350     3.2610 oh         1 9PN      -0.709000
     41 CAN          7.3190    -3.5620    -0.6110 c6         1 9PN       0.140300
     42 OBE          7.3630    -4.9770    -0.8790 oh         1 9PN      -0.719000
     43 CAR          6.5170    -2.8430    -1.7370 c6         1 9PN       0.138300
     44 OBC          7.1250    -3.0680    -3.0200 oh         1 9PN      -0.663000
     45 CAQ          6.4240    -1.3180    -1.4470 c6         1 9PN       0.114300
     46 OBF          5.6650    -0.6520    -2.4880 oh         1 9PN      -0.728000
     47 H1           5.1250     2.8050     1.0800 h1         1 9PN       0.055700
     48 H2           2.7780     1.7590     2.7730 h1         1 9PN       0.062700
     49 H3           3.9730     3.6270     3.8930 h1         1 9PN       0.029200
     50 H4           3.9050     4.5890     2.4100 h1         1 9PN       0.029200
     51 H5           3.9830    -0.0140     1.3680 h1         1 9PN       0.074700
     52 H7         -11.8710    -3.4300    -2.0980 ha         1 9PN       0.178500
     53 H8         -13.3210    -1.6270    -1.1490 ha         1 9PN       0.170000
     54 H9         -12.5180    -0.3040     0.8140 ha         1 9PN       0.178500
     55 H10        -10.2580    -0.8050     1.8140 h4         1 9PN       0.186000
     56 H11         -8.5290    -2.4380     2.0950 h1         1 9PN       0.094200
     57 H12         -8.2630    -3.7150     0.9030 h1         1 9PN       0.094200
     58 H13         -7.3410    -2.0140    -0.7110 hc         1 9PN       0.072200
     59 H14         -7.6050    -0.7400     0.4780 hc         1 9PN       0.072200
     60 H15         -6.0060    -1.8830     2.0520 hc         1 9PN       0.060200
     61 H16         -5.7370    -3.1490     0.8640 hc         1 9PN       0.060200
     62 H17         -4.4430     0.4150     1.7570 h4         1 9PN       0.177000
     63 H18         -2.4850     1.7380     0.9260 h2         1 9PN       0.071700
     64 H19         -0.9920     0.5520    -1.5000 h1         1 9PN       0.079700
     65 H20         -0.8410    -0.9220     0.1790 ho         1 9PN       0.525000
     66 H21         -2.2170     4.0180    -0.0030 h1         1 9PN       0.071700
     67 H22         -2.3690     5.5550    -1.9480 h1         1 9PN       0.034700
     68 H23         -2.8450     4.2150    -2.9990 h1         1 9PN       0.034700
     69 H24         -4.6770     5.4230    -2.3200 ho         1 9PN       0.511000
     70 H25         -0.7470     2.8860    -2.4570 h1         1 9PN       0.056700
     71 H26          1.0090     4.1970    -1.3650 ho         1 9PN       0.512000
     72 H27         -0.1160     2.6780     0.5220 h1         1 9PN       0.082700
     73 H28          1.7310     0.8410     0.7920 h2         1 9PN       0.051700
     74 H29          3.9700     1.9820    -0.9600 h1         1 9PN       0.064700
     75 H30          2.4520     0.2090    -1.7920 ho         1 9PN       0.517000
     76 H31          2.2480     5.2070     3.8720 ho         1 9PN       0.506000
     77 H32          6.2430     1.1260     2.4120 ho         1 9PN       0.510000
     78 H33          4.7960    -1.5480    -0.0100 h2         1 9PN       0.042700
     79 H34          5.6490    -3.6480     0.8030 h1         1 9PN       0.054700
     80 H35          7.4940    -4.9520     1.8360 h1         1 9PN       0.037700
     81 H36          8.5110    -3.5070     1.9000 h1         1 9PN       0.037700
     82 H37          7.5290    -3.9170     3.9370 ho         1 9PN       0.503000
     83 H38          8.3420    -3.1550    -0.6070 h1         1 9PN       0.059700
     84 H39          7.4930    -5.0450    -1.8570 ho         1 9PN       0.526000
     85 H40          5.4930    -3.2480    -1.7400 h1         1 9PN       0.048700
     86 H41          6.7940    -2.3320    -3.5860 ho         1 9PN       0.465000
     87 H42          7.4460    -0.9120    -1.4210 h1         1 9PN       0.068700
     88 H43          4.8050    -0.3560    -2.0670 ho         1 9PN       0.527000
     89 CBM         -5.9760    -2.0840     0.9740 c3         1 9PN      -0.075700
     90 H6          -9.6200    -3.8920    -1.0630 h4         1 9PN       0.186000
@<TRIPOS>BOND
     1     1     2 1   
     2     1     4 1   
     3     1    34 1   
     4     1    47 1   
     5     2     3 1   
     6     2    32 1   
     7     2    48 1   
     8     3    33 1   
     9     3    49 1   
    10     3    50 1   
    11     4    30 1   
    12     4    35 1   
    13     4    51 1   
    14     5     6 ar  
    15     5    10 2   
    16     5    90 1   
    17     6     7 ar  
    18     6    52 1   
    19     7     8 ar  
    20     7    53 1   
    21     8     9 ar  
    22     8    54 1   
    23     9    10 1   
    24     9    55 1   
    25    10    11 1   
    26    11    12 1   
    27    11    56 1   
    28    11    57 1   
    29    12    58 1   
    30    12    59 1   
    31    12    89 1   
    32    13    14 2   
    33    13    15 1   
    34    13    89 1   
    35    14    17 1   
    36    14    62 1   
    37    15    16 2   
    38    16    17 1   
    39    17    18 1   
    40    18    19 1   
    41    18    21 1   
    42    18    63 1   
    43    19    20 1   
    44    19    27 1   
    45    19    64 1   
    46    20    65 1   
    47    21    22 1   
    48    22    23 1   
    49    22    25 1   
    50    22    66 1   
    51    23    24 1   
    52    23    67 1   
    53    23    68 1   
    54    24    69 1   
    55    25    26 1   
    56    25    27 1   
    57    25    70 1   
    58    26    71 1   
    59    27    28 1   
    60    27    72 1   
    61    28    29 1   
    62    29    30 1   
    63    29    32 1   
    64    29    73 1   
    65    30    31 1   
    66    30    74 1   
    67    31    75 1   
    68    33    76 1   
    69    34    77 1   
    70    35    36 1   
    71    36    37 1   
    72    36    45 1   
    73    36    78 1   
    74    37    38 1   
    75    38    39 1   
    76    38    41 1   
    77    38    79 1   
    78    39    40 1   
    79    39    80 1   
    80    39    81 1   
    81    40    82 1   
    82    41    42 1   
    83    41    43 1   
    84    41    83 1   
    85    42    84 1   
    86    43    44 1   
    87    43    45 1   
    88    43    85 1   
    89    44    86 1   
    90    45    46 1   
    91    45    87 1   
    92    46    88 1   
    93    60    89 1   
    94    61    89 1   
@<TRIPOS>SUBSTRUCTURE
     1 9PN         1 TEMP              0 ****  ****    0 ROOT
