@<TRIPOS>MOLECULE
9PN
   90    94     1     0     0
SMALL
bcc


@<TRIPOS>ATOM
      1 C4           4.8210     1.7660     0.9090 c6         1 9PN       0.110100
      2 C5           3.6930     2.5480     1.6080 c6         1 9PN       0.118100
      3 C6           4.1800     3.8840     2.1250 c3         1 9PN       0.148400
      4 C3           4.2510     0.4910     0.2960 c6         1 9PN       0.162100
      5 CBP        -10.0190    -3.0230    -1.3520 ca         1 9PN      -0.027300
      6 CBO        -11.1380    -2.7770    -2.1130 ca         1 9PN      -0.132000
      7 CBT        -12.0830    -1.8730    -1.6500 ca         1 9PN      -0.008000
      8 CBS        -11.8780    -1.2400    -0.4340 ca         1 9PN      -0.132000
      9 CBR        -10.7400    -1.5230     0.2850 ca         1 9PN      -0.027300
     10 NBQ         -9.8420    -2.4020    -0.1770 na         1 9PN       0.046900
     11 CBN         -8.6050    -2.6460     0.5850 c3         1 9PN      -0.004700
     12 CBU         -7.4970    -1.7050     0.1400 c3         1 9PN      -0.099400
     13 CBL         -5.0870    -1.1200     0.4840 cc         1 9PN       0.232600
     14 CBH         -4.4520    -0.0990     1.1380 cd         1 9PN      -0.193600
     15 NBK         -4.5020    -1.2540    -0.7300 nc         1 9PN      -0.362000
     16 NBJ         -3.5610    -0.3880    -0.8510 nd         1 9PN      -0.180800
     17 NBI         -3.5110     0.3170     0.2690 na         1 9PN       0.109400
     18 CAG         -2.5700     1.3960     0.4270 c6         1 9PN       0.237800
     19 CAK         -1.1890     1.0150    -0.1120 c6         1 9PN       0.092100
     20 OBA         -0.6640    -0.0750     0.5930 oh         1 9PN      -0.584800
     21 OAY         -3.0800     2.5030    -0.2480 os         1 9PN      -0.398600
     22 CAI         -2.2960     3.6680    -0.0500 c6         1 9PN       0.115100
     23 CAJ         -2.9990     4.8100    -0.7490 c3         1 9PN       0.147400
     24 OBB         -4.2390     5.0320    -0.1250 oh         1 9PN      -0.589800
     25 CAH         -0.8730     3.4520    -0.5920 c6         1 9PN       0.115100
     26 OAZ         -0.0520     4.5510    -0.3030 oh         1 9PN      -0.558800
     27 CAL         -0.2620     2.2140     0.0560 c6         1 9PN       0.154100
     28 O1           0.9750     1.9370    -0.5650 os         1 9PN      -0.395600
     29 C1           2.0330     1.6080     0.2600 c6         1 9PN       0.316900
     30 C2           3.0340     0.8030    -0.5630 c6         1 9PN       0.100100
     31 O2           2.4990    -0.4140    -1.0100 oh         1 9PN      -0.592800
     32 O5           2.6360     2.7900     0.7060 os         1 9PN      -0.407600
     33 O6           3.1470     4.5010     2.8510 oh         1 9PN      -0.584800
     34 O4           5.8240     1.3970     1.8180 oh         1 9PN      -0.563800
     35 O3           5.2340    -0.1270    -0.5110 os         1 9PN      -0.398600
     36 CAM          5.5150    -1.4620    -0.2930 c6         1 9PN       0.323900
     37 OBD          6.5690    -1.5440     0.6260 os         1 9PN      -0.405600
     38 CAO          6.9430    -2.8680     0.9370 c6         1 9PN       0.157100
     39 CAP          7.9850    -2.8170     2.0340 c3         1 9PN       0.149400
     40 OBG          7.4100    -2.2590     3.1890 oh         1 9PN      -0.586800
     41 CAN          7.4730    -3.5520    -0.3250 c6         1 9PN       0.117100
     42 OBE          7.8110    -4.8790    -0.0060 oh         1 9PN      -0.596800
     43 CAR          6.4010    -3.5030    -1.4060 c6         1 9PN       0.115100
     44 OBC          6.9490    -4.0740    -2.5720 oh         1 9PN      -0.600800
     45 CAQ          5.9290    -2.0740    -1.6320 c6         1 9PN       0.091100
     46 OBF          4.8590    -2.1190    -2.5410 oh         1 9PN      -0.605800
     47 H1           5.2220     2.3900     0.0980 h1         1 9PN       0.055700
     48 H2           3.3370     1.9440     2.4600 h1         1 9PN       0.062700
     49 H3           5.0620     3.7120     2.7530 h1         1 9PN       0.029200
     50 H4           4.5070     4.4960     1.2720 h1         1 9PN       0.029200
     51 H5           3.9480    -0.1810     1.1110 h1         1 9PN       0.074700
     52 H7         -11.2580    -3.2920    -3.0530 ha         1 9PN       0.196500
     53 H8         -12.9710    -1.6660    -2.2310 ha         1 9PN       0.188000
     54 H9         -12.5890    -0.5330    -0.0350 ha         1 9PN       0.196500
     55 H10        -10.5250    -1.0650     1.2390 h4         1 9PN       0.204000
     56 H11         -8.8390    -2.5150     1.6400 h1         1 9PN       0.094200
     57 H12         -8.3280    -3.6880     0.4320 h1         1 9PN       0.094200
     58 H13         -7.3080    -1.8390    -0.9280 hc         1 9PN       0.072200
     59 H14         -7.8110    -0.6690     0.2870 hc         1 9PN       0.072200
     60 H15         -6.3960    -1.8110     1.9940 hc         1 9PN       0.060200
     61 H16         -5.9390    -3.0300     0.8190 hc         1 9PN       0.060200
     62 H17         -4.5870     0.3370     2.1130 h4         1 9PN       0.195000
     63 H18         -2.4990     1.5870     1.5070 h2         1 9PN       0.071700
     64 H19         -1.2810     0.8010    -1.1830 h1         1 9PN       0.079700
     65 H20         -0.8860    -0.8870     0.1300 ho         1 9PN       0.426000
     66 H21         -2.2260     3.8930     1.0270 h1         1 9PN       0.071700
     67 H22         -2.3570     5.6960    -0.6950 h1         1 9PN       0.034700
     68 H23         -3.1130     4.5590    -1.8130 h1         1 9PN       0.034700
     69 H24         -4.6730     5.7590    -0.5790 ho         1 9PN       0.412000
     70 H25         -0.9390     3.2750    -1.6760 h1         1 9PN       0.056700
     71 H26         -0.1100     5.1800    -1.0260 ho         1 9PN       0.413000
     72 H27         -0.1210     2.4150     1.1280 h1         1 9PN       0.082700
     73 H28          1.6980     1.0120     1.1250 h2         1 9PN       0.051700
     74 H29          3.3540     1.4330    -1.4080 h1         1 9PN       0.064700
     75 H30          1.7420    -0.2240    -1.5730 ho         1 9PN       0.418000
     76 H31          3.4890     5.3250     3.2090 ho         1 9PN       0.407000
     77 H32          6.4840     2.0940     1.8550 ho         1 9PN       0.411000
     78 H33          4.6340    -2.0030     0.0950 h2         1 9PN       0.042700
     79 H34          6.0700    -3.4370     1.3000 h1         1 9PN       0.054700
     80 H35          8.3450    -3.8350     2.2130 h1         1 9PN       0.037700
     81 H36          8.8450    -2.2300     1.6790 h1         1 9PN       0.037700
     82 H37          8.0280    -2.3810     3.9140 ho         1 9PN       0.404000
     83 H38          8.3550    -2.9910    -0.6740 h1         1 9PN       0.059700
     84 H39          8.0890    -5.3170    -0.8170 ho         1 9PN       0.427000
     85 H40          5.5400    -4.0930    -1.0510 h1         1 9PN       0.048700
     86 H41          6.2340    -4.2700    -3.1860 ho         1 9PN       0.426000
     87 H42          6.7690    -1.4780    -2.0260 h1         1 9PN       0.068700
     88 H43          4.4090    -1.2670    -2.5390 ho         1 9PN       0.428000
     89 CBM         -6.2180    -1.9780     0.9300 c3         1 9PN      -0.075700
     90 H6          -9.2490    -3.7170    -1.6550 h4         1 9PN       0.204000
@<TRIPOS>BOND
     1     1     2 1   
     2     1     4 1   
     3     1    34 1   
     4     1    47 1   
     5     2     3 1   
     6     2    32 1   
     7     2    48 1   
     8     3    33 1   
     9     3    49 1   
    10     3    50 1   
    11     4    30 1   
    12     4    35 1   
    13     4    51 1   
    14     5     6 ar  
    15     5    10 2   
    16     5    90 1   
    17     6     7 ar  
    18     6    52 1   
    19     7     8 ar  
    20     7    53 1   
    21     8     9 ar  
    22     8    54 1   
    23     9    10 1   
    24     9    55 1   
    25    10    11 1   
    26    11    12 1   
    27    11    56 1   
    28    11    57 1   
    29    12    58 1   
    30    12    59 1   
    31    12    89 1   
    32    13    14 2   
    33    13    15 1   
    34    13    89 1   
    35    14    17 1   
    36    14    62 1   
    37    15    16 2   
    38    16    17 1   
    39    17    18 1   
    40    18    19 1   
    41    18    21 1   
    42    18    63 1   
    43    19    20 1   
    44    19    27 1   
    45    19    64 1   
    46    20    65 1   
    47    21    22 1   
    48    22    23 1   
    49    22    25 1   
    50    22    66 1   
    51    23    24 1   
    52    23    67 1   
    53    23    68 1   
    54    24    69 1   
    55    25    26 1   
    56    25    27 1   
    57    25    70 1   
    58    26    71 1   
    59    27    28 1   
    60    27    72 1   
    61    28    29 1   
    62    29    30 1   
    63    29    32 1   
    64    29    73 1   
    65    30    31 1   
    66    30    74 1   
    67    31    75 1   
    68    33    76 1   
    69    34    77 1   
    70    35    36 1   
    71    36    37 1   
    72    36    45 1   
    73    36    78 1   
    74    37    38 1   
    75    38    39 1   
    76    38    41 1   
    77    38    79 1   
    78    39    40 1   
    79    39    80 1   
    80    39    81 1   
    81    40    82 1   
    82    41    42 1   
    83    41    43 1   
    84    41    83 1   
    85    42    84 1   
    86    43    44 1   
    87    43    45 1   
    88    43    85 1   
    89    44    86 1   
    90    45    46 1   
    91    45    87 1   
    92    46    88 1   
    93    60    89 1   
    94    61    89 1   
@<TRIPOS>SUBSTRUCTURE
     1 9PN         1 TEMP              0 ****  ****    0 ROOT
