@<TRIPOS>MOLECULE
9PO
   12    12     1     0     0
SMALL
No Charge or Current Charge


@<TRIPOS>ATOM
      1 C4          -1.1710     1.2240     0.0330 ca         1 9PO      -0.084000
      2 C5          -1.8680     0.0010     0.0520 ca         1 9PO      -0.131000
      3 C1           0.2540    -1.1850    -0.0060 ca         1 9PO      -0.166300
      4 N2           0.9470     0.0210    -0.0240 na         1 9PO       0.469300
      5 O8           2.1830     0.0320    -0.0580 o          1 9PO      -0.519000
      6 C3           0.2370     1.2180    -0.0050 ca         1 9PO      -0.217000
      7 C6          -1.1530    -1.2110     0.0320 ca         1 9PO      -0.084000
      8 H4          -1.7170     2.1660     0.0480 ha         1 9PO       0.134000
      9 H5          -2.9560    -0.0070     0.0810 ha         1 9PO       0.131000
     10 H3           0.8170     2.1380    -0.0200 h4         1 9PO       0.167000
     11 H6          -1.6850    -2.1610     0.0460 ha         1 9PO       0.134000
     12 H1           0.8480    -2.0970    -0.0220 h4         1 9PO       0.167000
@<TRIPOS>BOND
     1     1     2 ar  
     2     1     6 ar  
     3     1     8 1   
     4     2     7 ar  
     5     2     9 1   
     6     3     4 2   
     7     3     7 ar  
     8     3    12 1   
     9     4     5 1   
    10     4     6 1   
    11     6    10 1   
    12     7    11 1   
@<TRIPOS>SUBSTRUCTURE
     1 9PO         1 TEMP              0 ****  ****    0 ROOT
