@<TRIPOS>MOLECULE
9PO
   12    12     1     0     0
SMALL
abcg2


@<TRIPOS>ATOM
      1 C4          -1.1650     1.1920     0.0330 ca         1 9PO      -0.084000
      2 C5          -1.8730     0.0010     0.0520 ca         1 9PO      -0.131000
      3 C1           0.2290    -1.1500    -0.0050 ca         1 9PO      -0.166300
      4 N2           0.9090     0.0210    -0.0230 na         1 9PO       0.469300
      5 O8           2.1800     0.0310    -0.0570 o          1 9PO      -0.519000
      6 C3           0.2120     1.1830    -0.0040 ca         1 9PO      -0.217000
      7 C6          -1.1470    -1.1800     0.0320 ca         1 9PO      -0.084000
      8 H4          -1.6690     2.1480     0.0470 ha         1 9PO       0.134000
      9 H5          -2.9530    -0.0070     0.0810 ha         1 9PO       0.131000
     10 H3           0.8100     2.0810    -0.0210 h4         1 9PO       0.167000
     11 H6          -1.6380    -2.1430     0.0450 ha         1 9PO       0.134000
     12 H1           0.8410    -2.0390    -0.0230 h4         1 9PO       0.167000
@<TRIPOS>BOND
     1     1     2 ar  
     2     1     6 ar  
     3     1     8 1   
     4     2     7 ar  
     5     2     9 1   
     6     3     4 2   
     7     3     7 ar  
     8     3    12 1   
     9     4     5 1   
    10     4     6 1   
    11     6    10 1   
    12     7    11 1   
@<TRIPOS>SUBSTRUCTURE
     1 9PO         1 TEMP              0 ****  ****    0 ROOT
