@<TRIPOS>MOLECULE
9PP
   33    34     1     0     0
SMALL
No Charge or Current Charge


@<TRIPOS>ATOM
      1 N9           0.2840     1.1450     0.6610 na         1 9PP      -0.259300
      2 C8           0.2560     0.4630     1.8800 cc         1 9PP       0.482700
      3 N7           1.4240    -0.1780     2.0970 nd         1 9PP      -0.561100
      4 C5           2.1750     0.1210     0.9500 ca         1 9PP      -0.081600
      5 C6           3.4850    -0.2740     0.6030 ca         1 9PP       0.454900
      6 N6           4.2570    -1.0610     1.3990 nv         1 9PP      -1.070900
      7 N1           4.0510     0.1210    -0.5460 nb         1 9PP      -0.372000
      8 C2           3.2880     0.9010    -1.3280 ca         1 9PP       0.384900
      9 N2           3.8610     1.3000    -2.4860 nv         1 9PP      -1.048900
     10 N3           2.0350     1.3350    -1.0970 nb         1 9PP      -0.256000
     11 C4           1.4940     0.9250     0.0680 ca         1 9PP       0.170500
     12 C10         -0.7630     2.0020     0.0740 c3         1 9PP       0.094600
     13 C11         -2.0250     1.2260    -0.3820 c3         1 9PP       0.139300
     14 C12         -3.0290     2.1570    -1.1070 c3         1 9PP      -0.103100
     15 O13         -2.6520     0.6720     0.8070 os         1 9PP      -0.480000
     16 P           -3.3870    -1.9110    -0.2360 p5         1 9PP       1.275500
     17 C14         -3.7620    -0.2580     0.6140 c3         1 9PP      -0.160400
     18 O2P         -2.2100    -2.5550     0.4210 o          1 9PP      -0.923500
     19 O3P         -4.5810    -2.7970    -0.1010 o          1 9PP      -0.923500
     20 O1P         -3.0990    -1.6780    -1.6820 o          1 9PP      -0.923500
     21 H81         -0.5990     0.4870     2.5450 h5         1 9PP       0.066800
     22 HN61         3.9430    -1.1950     2.3570 hn         1 9PP       0.476500
     23 HN62         5.2580    -1.0790     1.2320 hn         1 9PP       0.476500
     24 HN21         4.8600     1.1600    -2.6060 hn         1 9PP       0.452000
     25 HN22         3.4220     2.0440    -3.0220 hn         1 9PP       0.452000
     26 H101        -0.3440     2.5360    -0.7880 h1         1 9PP       0.029700
     27 H102        -1.0500     2.7570     0.8170 h1         1 9PP       0.029700
     28 H111        -1.7000     0.4380    -1.0760 h1         1 9PP       0.138700
     29 H121        -2.5250     2.7070    -1.9120 hc         1 9PP       0.012033
     30 H122        -3.8450     1.5860    -1.5650 hc         1 9PP       0.012033
     31 H123        -3.4580     2.8900    -0.4130 hc         1 9PP       0.012033
     32 H141        -4.1720    -0.5250     1.5960 h1         1 9PP       0.001700
     33 H142        -4.5780     0.2200     0.0590 h1         1 9PP       0.001700
@<TRIPOS>BOND
     1     1     2 1   
     2     1    11 1   
     3     1    12 1   
     4     2     3 2   
     5     2    21 1   
     6     3     4 1   
     7     4     5 ar  
     8     4    11 ar  
     9     5     6 1   
    10     5     7 ar  
    11     6    22 1   
    12     6    23 1   
    13     7     8 ar  
    14     8     9 1   
    15     8    10 ar  
    16     9    24 1   
    17     9    25 1   
    18    10    11 ar  
    19    12    13 1   
    20    12    26 1   
    21    12    27 1   
    22    13    14 1   
    23    13    15 1   
    24    13    28 1   
    25    14    29 1   
    26    14    30 1   
    27    14    31 1   
    28    15    17 1   
    29    16    17 1   
    30    16    18 1   
    31    16    19 1   
    32    16    20 1   
    33    17    32 1   
    34    17    33 1   
@<TRIPOS>SUBSTRUCTURE
     1 9PP         1 TEMP              0 ****  ****    0 ROOT
