@<TRIPOS>MOLECULE
9PP
   33    34     1     0     0
SMALL
bcc


@<TRIPOS>ATOM
      1 N9           0.1170     1.2890     0.7850 na         1 9PP      -0.230000
      2 C8           0.1310     0.6480     1.9930 cc         1 9PP       0.482700
      3 N7           1.1740    -0.1020     2.1730 nd         1 9PP      -0.561100
      4 C5           1.8760     0.0160     0.9980 ca         1 9PP      -0.212200
      5 C6           3.0940    -0.5110     0.5430 ca         1 9PP       0.783200
      6 N6           3.8280    -1.3640     1.2770 nv         1 9PP      -0.960500
      7 N1           3.5290    -0.1720    -0.6700 nb         1 9PP      -0.898000
      8 C2           2.7950     0.6670    -1.4170 ca         1 9PP       0.910900
      9 N2           3.2810     0.9260    -2.6640 nv         1 9PP      -0.938500
     10 N3           1.6390     1.2360    -1.0890 nb         1 9PP      -0.782000
     11 C4           1.2270     0.8720     0.1220 ca         1 9PP       0.498800
     12 C10         -0.8820     2.2070     0.2860 c3         1 9PP       0.065300
     13 C11         -2.0700     1.4920    -0.3350 c3         1 9PP       0.116100
     14 C12         -3.0210     2.4940    -0.9790 c3         1 9PP      -0.103100
     15 O13         -2.7040     0.7790     0.7000 os         1 9PP      -0.433600
     16 P           -2.1990    -1.8550    -0.1590 p5         1 9PP       1.117700
     17 C14         -3.3290    -0.4330     0.2920 c3         1 9PP      -0.025800
     18 O2P         -1.2920    -2.0640     1.0550 o          1 9PP      -0.923500
     19 O3P         -3.2190    -2.9890    -0.3740 o          1 9PP      -0.923500
     20 O1P         -1.4680    -1.4520    -1.4470 o          1 9PP      -0.923500
     21 H81         -0.6620     0.7970     2.7080 h5         1 9PP       0.066800
     22 HN61         3.6100    -1.4970     2.2490 hn         1 9PP       0.421300
     23 HN62         4.7670    -1.5750     0.9860 hn         1 9PP       0.421300
     24 HN21         4.2650     0.7670    -2.8050 hn         1 9PP       0.396800
     25 HN22         2.9170     1.7430    -3.1260 hn         1 9PP       0.396800
     26 H101        -0.3990     2.8500    -0.4500 h1         1 9PP       0.029700
     27 H102        -1.2090     2.8440     1.1100 h1         1 9PP       0.029700
     28 H111        -1.6940     0.7990    -1.0930 h1         1 9PP       0.138700
     29 H121        -2.5350     3.0260    -1.7980 hc         1 9PP       0.012033
     30 H122        -3.8940     1.9870    -1.3930 hc         1 9PP       0.012033
     31 H123        -3.3740     3.2340    -0.2580 hc         1 9PP       0.012033
     32 H141        -3.9460    -0.7350     1.1450 h1         1 9PP       0.001700
     33 H142        -4.0390    -0.2410    -0.5300 h1         1 9PP       0.001700
@<TRIPOS>BOND
     1     1     2 1   
     2     1    11 1   
     3     1    12 1   
     4     2     3 2   
     5     2    21 1   
     6     3     4 1   
     7     4     5 ar  
     8     4    11 ar  
     9     5     6 1   
    10     5     7 ar  
    11     6    22 1   
    12     6    23 1   
    13     7     8 ar  
    14     8     9 1   
    15     8    10 ar  
    16     9    24 1   
    17     9    25 1   
    18    10    11 ar  
    19    12    13 1   
    20    12    26 1   
    21    12    27 1   
    22    13    14 1   
    23    13    15 1   
    24    13    28 1   
    25    14    29 1   
    26    14    30 1   
    27    14    31 1   
    28    15    17 1   
    29    16    17 1   
    30    16    18 1   
    31    16    19 1   
    32    16    20 1   
    33    17    32 1   
    34    17    33 1   
@<TRIPOS>SUBSTRUCTURE
     1 9PP         1 TEMP              0 ****  ****    0 ROOT
