@<TRIPOS>MOLECULE
9PQ
   55    58     1     0     0
SMALL
No Charge or Current Charge


@<TRIPOS>ATOM
      1 O24         -2.4030     0.0200     1.7850 o          1 9PQ      -0.595100
      2 C23         -1.8720    -0.3290     0.7390 c          1 9PQ       0.611700
      3 N25         -2.6040    -0.9150    -0.2720 ns         1 9PQ      -0.506900
      4 C26         -4.0560    -1.1440    -0.2300 c3         1 9PQ       0.100000
      5 C27         -4.8800     0.1590    -0.3920 c3         1 9PQ       0.153800
      6 N7          -6.3500    -0.0360    -0.5010 n3         1 9PQ      -0.715600
      7 C12         -7.0640     1.2280    -0.8650 c6         1 9PQ       0.126800
      8 C11         -8.6010     1.0090    -0.9970 c6         1 9PQ       0.153100
      9 O10         -9.1320     0.4330     0.2200 os         1 9PQ      -0.449000
     10 C9          -8.5110    -0.8320     0.5540 c6         1 9PQ       0.153100
     11 C8          -6.9710    -0.6560     0.7150 c6         1 9PQ       0.126800
     12 C16         -0.3870    -0.1480     0.4880 ca         1 9PQ      -0.151600
     13 C15          0.2310    -0.5490    -0.7220 ca         1 9PQ      -0.075500
     14 C14          1.6110    -0.3630    -0.9150 ca         1 9PQ      -0.110500
     15 C17          0.4190     0.4430     1.4890 ca         1 9PQ      -0.075500
     16 C18          1.7970     0.6250     1.2880 ca         1 9PQ      -0.110500
     17 C13          2.4160     0.2240     0.0850 cp         1 9PQ      -0.021000
     18 C19          3.8810     0.4220    -0.1280 cp         1 9PQ      -0.040000
     19 C2           4.7790    -0.6880    -0.1320 ca         1 9PQ      -0.021000
     20 C20          4.4040     1.7310    -0.3390 ca         1 9PQ      -0.062300
     21 C28          3.5100     2.9720    -0.3670 c3         1 9PQ       0.206900
     22 O29          3.5480     3.6470     0.8970 oh         1 9PQ      -0.659000
     23 C21          5.7840     1.9110    -0.5490 ca         1 9PQ      -0.085000
     24 C22          6.6570     0.8150    -0.5570 ca         1 9PQ      -0.099000
     25 C1           6.1620    -0.4820    -0.3500 ca         1 9PQ      -0.036000
     26 C6           7.0540    -1.5720    -0.3570 ca         1 9PQ      -0.100000
     27 C5           6.5800    -2.8750    -0.1430 ca         1 9PQ      -0.106000
     28 C4           5.2120    -3.0910     0.0820 ca         1 9PQ      -0.108000
     29 C3           4.3180    -2.0070     0.0900 ca         1 9PQ      -0.098000
     30 H1          -2.1000    -1.1840    -1.1060 hn         1 9PQ       0.311500
     31 H2          -4.3210    -1.8360    -1.0390 h1         1 9PQ       0.061200
     32 H3          -4.3070    -1.6270     0.7230 h1         1 9PQ       0.061200
     33 H4          -4.6560     0.8260     0.4520 h1         1 9PQ       0.033700
     34 H5          -4.5190     0.6630    -1.2990 h1         1 9PQ       0.033700
     35 H7          -6.8840     2.0010    -0.1030 h1         1 9PQ       0.041450
     36 H8          -6.6820     1.6210    -1.8190 h1         1 9PQ       0.041450
     37 H9          -9.1010     1.9690    -1.1890 h1         1 9PQ       0.052700
     38 H10         -8.8140     0.3370    -1.8410 h1         1 9PQ       0.052700
     39 H11         -8.9450    -1.2110     1.4900 h1         1 9PQ       0.052700
     40 H12         -8.7240    -1.5610    -0.2410 h1         1 9PQ       0.052700
     41 H13         -6.5340    -1.6440     0.9160 h1         1 9PQ       0.041450
     42 H14         -6.7800    -0.0320     1.6010 h1         1 9PQ       0.041450
     43 H15         -0.3410    -1.0070    -1.5260 ha         1 9PQ       0.125000
     44 H16          2.0670    -0.6760    -1.8520 ha         1 9PQ       0.124000
     45 H17         -0.0230     0.7640     2.4300 ha         1 9PQ       0.125000
     46 H18          2.3970     1.0820     2.0720 ha         1 9PQ       0.124000
     47 H19          3.8620     3.6430    -1.1620 h1         1 9PQ       0.030200
     48 H20          2.4800     2.6940    -0.6220 h1         1 9PQ       0.030200
     49 H21          2.9580     4.4290     0.8170 ho         1 9PQ       0.446000
     50 H22          6.1820     2.9110    -0.7090 ha         1 9PQ       0.134000
     51 H23          7.7190     0.9780    -0.7230 ha         1 9PQ       0.115000
     52 H24          8.1170    -1.4100    -0.5260 ha         1 9PQ       0.113000
     53 H25          7.2710    -3.7150    -0.1480 ha         1 9PQ       0.114000
     54 H26          4.8430    -4.1000     0.2540 ha         1 9PQ       0.114000
     55 H27          3.2660    -2.2080     0.2750 ha         1 9PQ       0.121000
@<TRIPOS>BOND
     1     1     2 2   
     2     2     3 1   
     3     2    12 1   
     4     3     4 1   
     5     3    30 1   
     6     4     5 1   
     7     4    31 1   
     8     4    32 1   
     9     5     6 1   
    10     5    33 1   
    11     5    34 1   
    12     6     7 1   
    13     6    11 1   
    14     7     8 1   
    15     7    35 1   
    16     7    36 1   
    17     8     9 1   
    18     8    37 1   
    19     8    38 1   
    20     9    10 1   
    21    10    11 1   
    22    10    39 1   
    23    10    40 1   
    24    11    41 1   
    25    11    42 1   
    26    12    13 ar  
    27    12    15 ar  
    28    13    14 ar  
    29    13    43 1   
    30    14    17 ar  
    31    14    44 1   
    32    15    16 ar  
    33    15    45 1   
    34    16    17 ar  
    35    16    46 1   
    36    17    18 1   
    37    18    19 ar  
    38    18    20 ar  
    39    19    25 ar  
    40    19    29 ar  
    41    20    21 1   
    42    20    23 ar  
    43    21    22 1   
    44    21    47 1   
    45    21    48 1   
    46    22    49 1   
    47    23    24 ar  
    48    23    50 1   
    49    24    25 ar  
    50    24    51 1   
    51    25    26 ar  
    52    26    27 ar  
    53    26    52 1   
    54    27    28 ar  
    55    27    53 1   
    56    28    29 ar  
    57    28    54 1   
    58    29    55 1   
@<TRIPOS>SUBSTRUCTURE
     1 9PQ         1 TEMP              0 ****  ****    0 ROOT
