@<TRIPOS>MOLECULE
9PQ
   55    58     1     0     0
SMALL
bcc


@<TRIPOS>ATOM
      1 O24         -1.9690    -1.9740     1.7640 o          1 9PQ      -0.595100
      2 C23         -1.7150    -1.0460     1.0080 c          1 9PQ       0.678700
      3 N25         -2.6660    -0.3290     0.3880 ns         1 9PQ      -0.573900
      4 C26         -4.0790    -0.5920     0.5570 c3         1 9PQ       0.100000
      5 C27         -4.8590     0.0970    -0.5550 c3         1 9PQ       0.153800
      6 N7          -6.2850    -0.1120    -0.4240 n3         1 9PQ      -0.715600
      7 C12         -6.9830     0.1200    -1.6760 c6         1 9PQ       0.126800
      8 C11         -8.4610    -0.1780    -1.5100 c6         1 9PQ       0.129900
      9 O10         -9.0350     0.6030    -0.4850 os         1 9PQ      -0.402600
     10 C9          -8.3630     0.3970     0.7370 c6         1 9PQ       0.129900
     11 C8          -6.8810     0.7010     0.6230 c6         1 9PQ       0.126800
     12 C16         -0.3050    -0.6470     0.7160 ca         1 9PQ      -0.151600
     13 C15          0.0800    -0.1170    -0.5130 ca         1 9PQ      -0.093500
     14 C14          1.4060     0.2070    -0.7530 ca         1 9PQ      -0.128500
     15 C17          0.6630    -0.8560     1.6950 ca         1 9PQ      -0.093500
     16 C18          1.9840    -0.5150     1.4600 ca         1 9PQ      -0.128500
     17 C13          2.3720     0.0200     0.2320 cp         1 9PQ      -0.021000
     18 C19          3.7900     0.3780    -0.0230 cp         1 9PQ      -0.040000
     19 C2           4.7390    -0.6540    -0.2670 ca         1 9PQ      -0.021000
     20 C20          4.1780     1.7010    -0.0230 ca         1 9PQ      -0.062300
     21 C28          3.1660     2.7910     0.2320 c3         1 9PQ       0.183700
     22 O29          3.8230     4.0080     0.4750 oh         1 9PQ      -0.596800
     23 C21          5.5300     2.0300    -0.2710 ca         1 9PQ      -0.103000
     24 C22          6.4600     1.0560    -0.4990 ca         1 9PQ      -0.117000
     25 C1           6.0960    -0.3070    -0.5010 ca         1 9PQ      -0.036000
     26 C6           7.0470    -1.3280    -0.7360 ca         1 9PQ      -0.118000
     27 C5           6.6730    -2.6430    -0.7470 ca         1 9PQ      -0.124000
     28 C4           5.3250    -2.9920    -0.5270 ca         1 9PQ      -0.126000
     29 C3           4.3840    -2.0260    -0.2950 ca         1 9PQ      -0.116000
     30 H1          -2.4060     0.5360    -0.0580 hn         1 9PQ       0.311500
     31 H2          -4.2550    -1.6670     0.5070 h1         1 9PQ       0.061200
     32 H3          -4.4140    -0.2550     1.5430 h1         1 9PQ       0.061200
     33 H4          -4.6030     1.1700    -0.5840 h1         1 9PQ       0.033700
     34 H5          -4.5360    -0.3270    -1.5100 h1         1 9PQ       0.033700
     35 H7          -6.8540     1.1580    -2.0300 h1         1 9PQ       0.041450
     36 H8          -6.5740    -0.5360    -2.4480 h1         1 9PQ       0.041450
     37 H9          -8.9950     0.0510    -2.4340 h1         1 9PQ       0.052700
     38 H10         -8.5930    -1.2480    -1.2970 h1         1 9PQ       0.052700
     39 H11         -8.8220     1.0530     1.4780 h1         1 9PQ       0.052700
     40 H12         -8.4930    -0.6400     1.0770 h1         1 9PQ       0.052700
     41 H13         -6.4150     0.4810     1.5850 h1         1 9PQ       0.041450
     42 H14         -6.7340     1.7780     0.4280 h1         1 9PQ       0.041450
     43 H15         -0.6430     0.0210    -1.3080 ha         1 9PQ       0.143000
     44 H16          1.6960     0.5990    -1.7200 ha         1 9PQ       0.142000
     45 H17          0.3800    -1.2780     2.6500 ha         1 9PQ       0.143000
     46 H18          2.7230    -0.6670     2.2360 ha         1 9PQ       0.142000
     47 H19          2.4980     2.8680    -0.6360 h1         1 9PQ       0.030200
     48 H20          2.5320     2.5020     1.0800 h1         1 9PQ       0.030200
     49 H21          3.1540     4.6910     0.5750 ho         1 9PQ       0.407000
     50 H22          5.8360     3.0660    -0.2790 ha         1 9PQ       0.152000
     51 H23          7.4930     1.3250    -0.6850 ha         1 9PQ       0.133000
     52 H24          8.0790    -1.0500    -0.9100 ha         1 9PQ       0.131000
     53 H25          7.4070    -3.4180    -0.9270 ha         1 9PQ       0.132000
     54 H26          5.0330    -4.0350    -0.5430 ha         1 9PQ       0.132000
     55 H27          3.3540    -2.3170    -0.1320 ha         1 9PQ       0.139000
@<TRIPOS>BOND
     1     1     2 2   
     2     2     3 1   
     3     2    12 1   
     4     3     4 1   
     5     3    30 1   
     6     4     5 1   
     7     4    31 1   
     8     4    32 1   
     9     5     6 1   
    10     5    33 1   
    11     5    34 1   
    12     6     7 1   
    13     6    11 1   
    14     7     8 1   
    15     7    35 1   
    16     7    36 1   
    17     8     9 1   
    18     8    37 1   
    19     8    38 1   
    20     9    10 1   
    21    10    11 1   
    22    10    39 1   
    23    10    40 1   
    24    11    41 1   
    25    11    42 1   
    26    12    13 ar  
    27    12    15 ar  
    28    13    14 ar  
    29    13    43 1   
    30    14    17 ar  
    31    14    44 1   
    32    15    16 ar  
    33    15    45 1   
    34    16    17 ar  
    35    16    46 1   
    36    17    18 1   
    37    18    19 ar  
    38    18    20 ar  
    39    19    25 ar  
    40    19    29 ar  
    41    20    21 1   
    42    20    23 ar  
    43    21    22 1   
    44    21    47 1   
    45    21    48 1   
    46    22    49 1   
    47    23    24 ar  
    48    23    50 1   
    49    24    25 ar  
    50    24    51 1   
    51    25    26 ar  
    52    26    27 ar  
    53    26    52 1   
    54    27    28 ar  
    55    27    53 1   
    56    28    29 ar  
    57    28    54 1   
    58    29    55 1   
@<TRIPOS>SUBSTRUCTURE
     1 9PQ         1 TEMP              0 ****  ****    0 ROOT
