@<TRIPOS>MOLECULE
9PR
   21    21     1     0     0
SMALL
abcg2


@<TRIPOS>ATOM
      1 C           17.0960    -0.9470     6.9920 c          1 9PR       0.604100
      2 N           15.5920    -2.5060     5.8360 n7         1 9PR      -0.823400
      3 O           17.0160    -0.1400     6.0770 o          1 9PR      -0.579100
      4 CA          16.6030    -2.3850     6.8720 c5         1 9PR       0.079500
      5 CB          17.7590    -3.3000     6.4270 c5         1 9PR      -0.107400
      6 CD          16.2750    -2.8280     4.5740 c5         1 9PR       0.151800
      7 CG          17.7510    -3.1240     4.9100 c5         1 9PR      -0.102400
      8 C1          18.2750     0.6400     8.4280 c3         1 9PR       0.098300
      9 N1          17.6700    -0.6440     8.1680 ns         1 9PR      -0.518900
     10 HN          14.9800    -3.2700     6.0850 hn         1 9PR       0.403000
     11 HA          16.1890    -2.7020     7.8320 h1         1 9PR       0.058700
     12 HB          18.7180    -3.0600     6.8870 hc         1 9PR       0.049700
     13 HBA         17.5140    -4.3300     6.6980 hc         1 9PR       0.049700
     14 HD          15.7930    -3.6860     4.1030 h1         1 9PR       0.051700
     15 HDA         16.2010    -1.9970     3.8700 h1         1 9PR       0.051700
     16 HG          18.3880    -2.2880     4.6200 hc         1 9PR       0.054200
     17 HGA         18.1220    -4.0060     4.3890 hc         1 9PR       0.054200
     18 H1          18.6810     0.6330     9.4360 h1         1 9PR       0.038033
     19 H1A         19.0880     0.8530     7.7330 h1         1 9PR       0.038033
     20 H1B         17.5480     1.4510     8.3590 h1         1 9PR       0.038033
     21 HN1         17.7020    -1.3390     8.8940 hn         1 9PR       0.309500
@<TRIPOS>BOND
     1     1     3 2   
     2     1     4 1   
     3     1     9 1   
     4     2     4 1   
     5     2     6 1   
     6     2    10 1   
     7     4     5 1   
     8     4    11 1   
     9     5     7 1   
    10     5    12 1   
    11     5    13 1   
    12     6     7 1   
    13     6    14 1   
    14     6    15 1   
    15     7    16 1   
    16     7    17 1   
    17     8     9 1   
    18     8    18 1   
    19     8    19 1   
    20     8    20 1   
    21     9    21 1   
@<TRIPOS>SUBSTRUCTURE
     1 9PR         1 TEMP              0 ****  ****    0 ROOT
