@<TRIPOS>MOLECULE
9PR
   21    21     1     0     0
SMALL
No Charge or Current Charge


@<TRIPOS>ATOM
      1 C           17.4930    -0.8300     6.9460 c          1 9PR       0.604100
      2 N           15.7310    -2.3930     5.8270 n7         1 9PR      -0.823400
      3 O           17.8580    -0.0350     6.0870 o          1 9PR      -0.579100
      4 CA          16.9310    -2.2960     6.7330 c5         1 9PR       0.079500
      5 CB          18.0370    -3.1750     6.0510 c5         1 9PR      -0.107400
      6 CD          16.2990    -2.6710     4.4930 c5         1 9PR       0.151800
      7 CG          17.3110    -3.7860     4.8210 c5         1 9PR      -0.102400
      8 C1          17.9840     0.7430     8.8460 c3         1 9PR       0.098300
      9 N1          17.5210    -0.5320     8.2950 ns         1 9PR      -0.518900
     10 HN          15.1830    -3.2180     6.1040 hn         1 9PR       0.403000
     11 HA          16.6720    -2.7070     7.7190 h1         1 9PR       0.058700
     12 HB          18.8980    -2.5740     5.7330 hc         1 9PR       0.049700
     13 HBA         18.4240    -3.9480     6.7240 hc         1 9PR       0.049700
     14 HD          15.5310    -2.9980     3.7780 h1         1 9PR       0.051700
     15 HDA         16.7980    -1.7820     4.0790 h1         1 9PR       0.051700
     16 HG          17.9920    -3.9940     3.9880 hc         1 9PR       0.054200
     17 HGA         16.8040    -4.7250     5.0750 hc         1 9PR       0.054200
     18 H1          17.9040     0.7200     9.9400 h1         1 9PR       0.038033
     19 H1A         19.0320     0.9080     8.5620 h1         1 9PR       0.038033
     20 H1B         17.3660     1.5610     8.4540 h1         1 9PR       0.038033
     21 HN1         17.1900    -1.2460     8.9340 hn         1 9PR       0.309500
@<TRIPOS>BOND
     1     1     3 2   
     2     1     4 1   
     3     1     9 1   
     4     2     4 1   
     5     2     6 1   
     6     2    10 1   
     7     4     5 1   
     8     4    11 1   
     9     5     7 1   
    10     5    12 1   
    11     5    13 1   
    12     6     7 1   
    13     6    14 1   
    14     6    15 1   
    15     7    16 1   
    16     7    17 1   
    17     8     9 1   
    18     8    18 1   
    19     8    19 1   
    20     8    20 1   
    21     9    21 1   
@<TRIPOS>SUBSTRUCTURE
     1 9PR         1 TEMP              0 ****  ****    0 ROOT
