@<TRIPOS>MOLECULE
9PS
   34    36     1     0     0
SMALL
bcc


@<TRIPOS>ATOM
      1 C1          21.5990    30.3370    -0.0060 ca         1 9PS      -0.034000
      2 C2          20.8550    29.5080    -0.8800 ca         1 9PS      -0.117000
      3 C3          20.8830    28.1500    -0.7600 ca         1 9PS      -0.114000
      4 C7          23.1290    30.5400     1.8840 ca         1 9PS      -0.115000
      5 C8          23.0990    31.9030     1.7640 ca         1 9PS      -0.125000
      6 C9          22.3190    32.5130     0.7600 ca         1 9PS      -0.124000
      7 C10         21.5840    31.7460    -0.1050 ca         1 9PS      -0.116000
      8 C16         21.1660    25.1530    -0.3950 ce         1 9PS      -0.093200
      9 C19         20.7970    21.5010    -1.1370 ca         1 9PS      -0.143000
     10 C20         21.2120    20.9040     0.0420 ca         1 9PS       0.128100
     11 C21         21.6130    21.7220     1.1120 ca         1 9PS       0.042100
     12 C22         21.6030    23.0960     0.9800 ca         1 9PS      -0.164000
     13 O23         21.2130    19.5610     0.1390 oh         1 9PS      -0.493100
     14 O24         21.9840    21.0710     2.2380 oh         1 9PS      -0.521100
     15 C18         20.7820    22.8840    -1.2610 ca         1 9PS      -0.110000
     16 C17         21.1920    23.7060    -0.2130 ca         1 9PS      -0.055800
     17 C4          21.6590    27.5170     0.2510 ca         1 9PS      -0.048800
     18 C5          22.3850    28.3140     1.1090 ca         1 9PS      -0.106000
     19 C6          22.3800    29.7220     1.0060 ca         1 9PS      -0.036000
     20 H1          20.2500    29.9700    -1.6520 ha         1 9PS       0.132000
     21 H2          20.2930    27.5510    -1.4420 ha         1 9PS       0.131000
     22 H3          23.7290    30.0710     2.6550 ha         1 9PS       0.130000
     23 H4          23.6760    32.5200     2.4400 ha         1 9PS       0.131000
     24 H5          22.3030    33.5920     0.6760 ha         1 9PS       0.131000
     25 H6          20.9850    32.2120    -0.8780 ha         1 9PS       0.131000
     26 H7          22.2440    25.7410     1.3060 ha         1 9PS       0.119000
     27 H8          20.6630    25.4790    -1.3010 ha         1 9PS       0.123000
     28 H9          20.4800    20.8760    -1.9630 ha         1 9PS       0.150000
     29 H10         21.9050    23.6990     1.8290 ha         1 9PS       0.131000
     30 H11         21.5230    19.2860     1.0100 ho         1 9PS       0.444000
     31 H12         22.2540    21.6910     2.9250 ho         1 9PS       0.436000
     32 H13         20.4510    23.3270    -2.1920 ha         1 9PS       0.135000
     33 H14         22.9820    27.8560     1.8900 ha         1 9PS       0.129000
     34 C15         21.7050    26.0690     0.4230 cf         1 9PS      -0.106200
@<TRIPOS>BOND
     1     1     2 ar  
     2     1     7 ar  
     3     1    19 ar  
     4     2     3 ar  
     5     2    20 1   
     6     3    17 ar  
     7     3    21 1   
     8     4     5 ar  
     9     4    19 ar  
    10     4    22 1   
    11     5     6 ar  
    12     5    23 1   
    13     6     7 ar  
    14     6    24 1   
    15     7    25 1   
    16     8    16 1   
    17     8    27 1   
    18     8    34 2   
    19     9    10 ar  
    20     9    15 ar  
    21     9    28 1   
    22    10    11 ar  
    23    10    13 1   
    24    11    12 ar  
    25    11    14 1   
    26    12    16 ar  
    27    12    29 1   
    28    13    30 1   
    29    14    31 1   
    30    15    16 ar  
    31    15    32 1   
    32    17    18 ar  
    33    17    34 1   
    34    18    19 ar  
    35    18    33 1   
    36    26    34 1   
@<TRIPOS>SUBSTRUCTURE
     1 9PS         1 TEMP              0 ****  ****    0 ROOT
