@<TRIPOS>MOLECULE
9PS
   34    36     1     0     0
SMALL
No Charge or Current Charge


@<TRIPOS>ATOM
      1 C1          21.6520    30.3780    -0.0280 ca         1 9PS      -0.034000
      2 C2          20.9670    29.5810    -0.9610 ca         1 9PS      -0.099000
      3 C3          20.9710    28.1800    -0.8360 ca         1 9PS      -0.096000
      4 C7          23.0320    30.5610     1.9750 ca         1 9PS      -0.097000
      5 C8          23.0270    31.9610     1.8490 ca         1 9PS      -0.107000
      6 C9          22.3360    32.5700     0.7880 ca         1 9PS      -0.106000
      7 C10         21.6490    31.7800    -0.1500 ca         1 9PS      -0.098000
      8 C16         21.1140    25.1170    -0.3830 ce         1 9PS      -0.143200
      9 C19         20.6450    21.4140    -1.1130 ca         1 9PS      -0.125000
     10 C20         21.1710    20.8220     0.0430 ca         1 9PS       0.128100
     11 C21         21.6860    21.6280     1.0790 ca         1 9PS       0.042100
     12 C22         21.6720    23.0280     0.9510 ca         1 9PS      -0.146000
     13 O23         21.1890    19.4650     0.1770 oh         1 9PS      -0.532100
     14 O24         22.1960    21.0440     2.2090 oh         1 9PS      -0.560100
     15 C18         20.6320    22.8140    -1.2390 ca         1 9PS      -0.092000
     16 C17         21.1470    23.6340    -0.2130 ca         1 9PS      -0.055800
     17 C4          21.6620    27.5570     0.2260 ca         1 9PS      -0.048800
     18 C5          22.3470    28.3630     1.1590 ca         1 9PS      -0.088000
     19 C6          22.3450    29.7650     1.0380 ca         1 9PS      -0.036000
     20 H1          20.4290    30.0430    -1.7860 ha         1 9PS       0.114000
     21 H2          20.4330    27.5920    -1.5720 ha         1 9PS       0.113000
     22 H3          23.5700    30.0970     2.7990 ha         1 9PS       0.112000
     23 H4          23.5590    32.5740     2.5740 ha         1 9PS       0.113000
     24 H5          22.3330    33.6540     0.6910 ha         1 9PS       0.113000
     25 H6          21.1160    32.2590    -0.9690 ha         1 9PS       0.113000
     26 H7          22.2600    25.7610     1.2550 ha         1 9PS       0.169000
     27 H8          20.5500    25.4320    -1.2600 ha         1 9PS       0.173000
     28 H9          20.2470    20.7910    -1.9100 ha         1 9PS       0.132000
     29 H10         22.0650    23.6390     1.7580 ha         1 9PS       0.113000
     30 H11         21.5960    19.2880     1.0550 ho         1 9PS       0.483000
     31 H12         22.5070    21.7490     2.8200 ho         1 9PS       0.475000
     32 H13         20.2210    23.2620    -2.1420 ha         1 9PS       0.117000
     33 H14         22.8840    27.8990     1.9830 ha         1 9PS       0.111000
     34 C15         21.6870    26.0870     0.3880 cf         1 9PS      -0.156200
@<TRIPOS>BOND
     1     1     2 ar  
     2     1     7 ar  
     3     1    19 ar  
     4     2     3 ar  
     5     2    20 1   
     6     3    17 ar  
     7     3    21 1   
     8     4     5 ar  
     9     4    19 ar  
    10     4    22 1   
    11     5     6 ar  
    12     5    23 1   
    13     6     7 ar  
    14     6    24 1   
    15     7    25 1   
    16     8    16 1   
    17     8    27 1   
    18     8    34 2   
    19     9    10 ar  
    20     9    15 ar  
    21     9    28 1   
    22    10    11 ar  
    23    10    13 1   
    24    11    12 ar  
    25    11    14 1   
    26    12    16 ar  
    27    12    29 1   
    28    13    30 1   
    29    14    31 1   
    30    15    16 ar  
    31    15    32 1   
    32    17    18 ar  
    33    17    34 1   
    34    18    19 ar  
    35    18    33 1   
    36    26    34 1   
@<TRIPOS>SUBSTRUCTURE
     1 9PS         1 TEMP              0 ****  ****    0 ROOT
