@<TRIPOS>MOLECULE
9PT
   96   101     1     0     0
SMALL
abcg2


@<TRIPOS>ATOM
      1 C4           0.1290     3.0960     0.6000 c6         1 9PT       0.128300
      2 C5          -1.1030     3.5130     1.4070 c6         1 9PT       0.175300
      3 C6          -1.5180     4.9380     1.1140 c3         1 9PT       0.170600
      4 C3           0.3960     1.6020     0.8030 c6         1 9PT       0.139300
      5 CBR        -10.6690     0.6320    -0.3200 ca         1 9PT       0.043700
      6 CBS        -11.5330     0.8600    -1.3830 ca         1 9PT      -0.165000
      7 CBP        -11.6020    -0.0700    -2.3850 ca         1 9PT       0.044000
      8 CBT        -10.8060    -1.2280    -2.3270 ca         1 9PT      -0.080000
      9 CBY        -10.8540    -2.2080    -3.3420 ca         1 9PT      -0.057000
     10 CBX        -10.0690    -3.3230    -3.2640 ca         1 9PT      -0.081000
     11 CBW         -9.2110    -3.4970    -2.1640 ca         1 9PT      -0.020000
     12 CBV         -9.1380    -2.5680    -1.1580 ca         1 9PT      -0.135000
     13 CBU         -9.9390    -1.4150    -1.2240 ca         1 9PT      -0.027000
     14 NBQ         -9.9120    -0.4520    -0.2420 na         1 9PT       0.057300
     15 CBN         -8.9950    -0.5810     0.9030 c3         1 9PT       0.026600
     16 CBO         -7.5780    -0.1650     0.5390 c3         1 9PT      -0.099400
     17 CAB         -5.2200    -0.1040     1.3770 cc         1 9PT       0.166300
     18 CAC         -4.3490     0.7850     1.9470 cd         1 9PT      -0.151000
     19 NAD         -4.5640    -0.7330     0.3730 nc         1 9PT      -0.361000
     20 NAE         -3.3650    -0.2800     0.2970 nd         1 9PT      -0.205800
     21 NAF         -3.2130     0.6350     1.2400 na         1 9PT       0.133800
     22 C1          -1.9650     1.3400     1.4250 c6         1 9PT       0.281300
     23 C2          -0.8470     0.7560     0.5590 c6         1 9PT       0.148300
     24 O2          -0.5460    -0.5690     0.8920 oh         1 9PT      -0.707000
     25 O5          -2.1960     2.6710     1.0800 os         1 9PT      -0.453000
     26 O6          -2.5910     5.2780     1.9580 oh         1 9PT      -0.721000
     27 O4           1.2030     3.8810     1.0440 oh         1 9PT      -0.723000
     28 O3           1.3800     1.1310    -0.0940 os         1 9PT      -0.448000
     29 CAR          2.6920     1.0880     0.3300 c6         1 9PT       0.359300
     30 CAS          3.3330    -0.1740    -0.2350 c6         1 9PT       0.148300
     31 OAT          2.7450    -1.3270     0.3070 oh         1 9PT      -0.718000
     32 OAU          3.3440     2.2210    -0.1790 os         1 9PT      -0.484000
     33 CAV          4.6900     2.3250     0.2450 c6         1 9PT       0.178300
     34 CAW          5.2170     3.6500    -0.2620 c3         1 9PT       0.169600
     35 OAX          4.4540     4.6780     0.3250 oh         1 9PT      -0.724000
     36 CAY          5.4950     1.1330    -0.2830 c6         1 9PT       0.128300
     37 OAZ          6.7860     1.2420     0.2550 oh         1 9PT      -0.727000
     38 CBA          4.8080    -0.1740     0.1290 c6         1 9PT       0.143300
     39 OBB          5.3860    -1.2940    -0.5140 os         1 9PT      -0.446000
     40 CBC          6.4010    -1.9700     0.1270 c6         1 9PT       0.360300
     41 OBD          7.6260    -1.4760    -0.3570 os         1 9PT      -0.488000
     42 CBE          8.7540    -2.0640     0.2660 c6         1 9PT       0.180300
     43 CBF          9.9810    -1.3510    -0.2600 c3         1 9PT       0.168600
     44 OBG          9.8930     0.0050     0.1100 oh         1 9PT      -0.720000
     45 CBH          8.7710    -3.5620    -0.0420 c6         1 9PT       0.144300
     46 OBI          9.8650    -4.1310     0.6330 oh         1 9PT      -0.717000
     47 CBJ          7.4550    -4.1960     0.4010 c6         1 9PT       0.140300
     48 OBK          7.4910    -5.5490     0.0160 oh         1 9PT      -0.662000
     49 CBL          6.2730    -3.4530    -0.2050 c6         1 9PT       0.117300
     50 OBM          5.0940    -3.9900     0.3360 oh         1 9PT      -0.726000
     51 H1          -0.0810     3.2640    -0.4680 h1         1 9PT       0.059700
     52 H2          -0.8690     3.4170     2.4790 h1         1 9PT       0.067700
     53 H3          -0.6510     5.5860     1.2740 h1         1 9PT       0.046200
     54 H4          -1.7890     5.0180     0.0520 h1         1 9PT       0.046200
     55 H5           0.7260     1.4480     1.8420 h1         1 9PT       0.065700
     56 H7         -12.1270     1.7600    -1.3910 ha         1 9PT       0.174000
     57 H8         -12.2670     0.0750    -3.2270 ha         1 9PT       0.161000
     58 H9         -11.5230    -2.0550    -4.1780 ha         1 9PT       0.148000
     59 H10        -10.1050    -4.0740    -4.0410 ha         1 9PT       0.154000
     60 H11         -8.5920    -4.3820    -2.1050 ha         1 9PT       0.152000
     61 H12         -8.4640    -2.7460    -0.3340 ha         1 9PT       0.151000
     62 H13         -9.3880     0.0460     1.7000 h1         1 9PT       0.088200
     63 H14         -9.0400    -1.6070     1.2640 h1         1 9PT       0.088200
     64 H15         -7.2250    -0.7250    -0.3290 hc         1 9PT       0.074200
     65 H16         -7.5670     0.8910     0.2610 hc         1 9PT       0.074200
     66 H17         -6.9410     0.1950     2.5750 hc         1 9PT       0.057200
     67 H18         -6.7160    -1.4540     2.0300 hc         1 9PT       0.057200
     68 H20         -1.6940     1.2500     2.4870 h2         1 9PT       0.074700
     69 H21         -1.1390     0.8570    -0.4940 h1         1 9PT       0.080700
     70 H22         -1.2120    -1.1320     0.4820 ho         1 9PT       0.532000
     71 H23         -2.8050     6.2030     1.8070 ho         1 9PT       0.511000
     72 H24          1.9800     3.7160     0.4940 ho         1 9PT       0.554000
     73 H25          2.7570     1.0730     1.4320 h2         1 9PT       0.045700
     74 H26          3.2340    -0.1420    -1.3310 h1         1 9PT       0.071700
     75 H27          1.7930    -1.2870     0.1480 ho         1 9PT       0.529000
     76 H28          4.7380     2.3180     1.3460 h1         1 9PT       0.064700
     77 H29          6.2770     3.7300    -0.0020 h1         1 9PT       0.043700
     78 H30          5.1480     3.6650    -1.3580 h1         1 9PT       0.043700
     79 H31          4.7460     5.5170    -0.0420 ho         1 9PT       0.510000
     80 H32          5.5070     1.1820    -1.3830 h1         1 9PT       0.057700
     81 H33          7.3480     0.5350    -0.0940 ho         1 9PT       0.551000
     82 H34          4.9010    -0.2800     1.2200 h1         1 9PT       0.061700
     83 H35          6.3450    -1.8300     1.2220 h2         1 9PT       0.044700
     84 H36          8.6930    -1.9270     1.3570 h1         1 9PT       0.064700
     85 H37         10.8710    -1.8310     0.1600 h1         1 9PT       0.042200
     86 H38         10.0270    -1.4760    -1.3500 h1         1 9PT       0.042200
     87 H39         10.6220     0.4770    -0.3020 ho         1 9PT       0.510000
     88 H40          8.8700    -3.6890    -1.1320 h1         1 9PT       0.057700
     89 H41          9.8610    -5.0790     0.4650 ho         1 9PT       0.528000
     90 H42          7.3910    -4.1030     1.4970 h1         1 9PT       0.052700
     91 H43          6.7810    -6.0180     0.4640 ho         1 9PT       0.467000
     92 H44          6.3030    -3.5620    -1.3000 h1         1 9PT       0.068700
     93 H45          4.3440    -3.4960    -0.0150 ho         1 9PT       0.534000
     94 H19         -4.4470     1.4790     2.7650 h4         1 9PT       0.184000
     95 CAA         -6.6370    -0.4090     1.7180 c3         1 9PT      -0.076700
     96 H6         -10.5820     1.3380     0.4930 h4         1 9PT       0.176000
@<TRIPOS>BOND
     1     1     2 1   
     2     1     4 1   
     3     1    27 1   
     4     1    51 1   
     5     2     3 1   
     6     2    25 1   
     7     2    52 1   
     8     3    26 1   
     9     3    53 1   
    10     3    54 1   
    11     4    23 1   
    12     4    28 1   
    13     4    55 1   
    14     5     6 ar  
    15     5    14 2   
    16     5    96 1   
    17     6     7 ar  
    18     6    56 1   
    19     7     8 ar  
    20     7    57 1   
    21     8     9 ar  
    22     8    13 ar  
    23     9    10 ar  
    24     9    58 1   
    25    10    11 ar  
    26    10    59 1   
    27    11    12 ar  
    28    11    60 1   
    29    12    13 ar  
    30    12    61 1   
    31    13    14 1   
    32    14    15 1   
    33    15    16 1   
    34    15    62 1   
    35    15    63 1   
    36    16    64 1   
    37    16    65 1   
    38    16    95 1   
    39    17    18 2   
    40    17    19 1   
    41    17    95 1   
    42    18    21 1   
    43    18    94 1   
    44    19    20 2   
    45    20    21 1   
    46    21    22 1   
    47    22    23 1   
    48    22    25 1   
    49    22    68 1   
    50    23    24 1   
    51    23    69 1   
    52    24    70 1   
    53    26    71 1   
    54    27    72 1   
    55    28    29 1   
    56    29    30 1   
    57    29    32 1   
    58    29    73 1   
    59    30    31 1   
    60    30    38 1   
    61    30    74 1   
    62    31    75 1   
    63    32    33 1   
    64    33    34 1   
    65    33    36 1   
    66    33    76 1   
    67    34    35 1   
    68    34    77 1   
    69    34    78 1   
    70    35    79 1   
    71    36    37 1   
    72    36    38 1   
    73    36    80 1   
    74    37    81 1   
    75    38    39 1   
    76    38    82 1   
    77    39    40 1   
    78    40    41 1   
    79    40    49 1   
    80    40    83 1   
    81    41    42 1   
    82    42    43 1   
    83    42    45 1   
    84    42    84 1   
    85    43    44 1   
    86    43    85 1   
    87    43    86 1   
    88    44    87 1   
    89    45    46 1   
    90    45    47 1   
    91    45    88 1   
    92    46    89 1   
    93    47    48 1   
    94    47    49 1   
    95    47    90 1   
    96    48    91 1   
    97    49    50 1   
    98    49    92 1   
    99    50    93 1   
   100    66    95 1   
   101    67    95 1   
@<TRIPOS>SUBSTRUCTURE
     1 9PT         1 TEMP              0 ****  ****    0 ROOT
