@<TRIPOS>MOLECULE
9PT
   96   101     1     0     0
SMALL
No Charge or Current Charge


@<TRIPOS>ATOM
      1 C4           0.1580     2.3450    -0.4090 c6         1 9PT       0.128300
      2 C5          -1.1480     2.8880     0.2560 c6         1 9PT       0.175300
      3 C6          -1.4980     4.3420    -0.2060 c3         1 9PT       0.170600
      4 C3           0.3860     0.8530     0.0130 c6         1 9PT       0.139300
      5 CBR        -10.8280     0.4340     1.4880 ca         1 9PT       0.043700
      6 CBS        -12.0080     1.1620     1.2650 ca         1 9PT      -0.165000
      7 CBP        -12.6970     1.0150     0.0520 ca         1 9PT       0.044000
      8 CBT        -12.1910     0.1530    -0.9390 ca         1 9PT      -0.080000
      9 CBY        -12.8770     0.0380    -2.1650 ca         1 9PT      -0.057000
     10 CBX        -12.3830    -0.7990    -3.1770 ca         1 9PT      -0.081000
     11 CBW        -11.1990    -1.5220    -2.9700 ca         1 9PT      -0.020000
     12 CBV        -10.5100    -1.4160    -1.7490 ca         1 9PT      -0.135000
     13 CBU        -10.9980    -0.5840    -0.7100 ca         1 9PT      -0.027000
     14 NBQ        -10.3350    -0.4640     0.5350 na         1 9PT       0.057300
     15 CBN         -9.1660    -1.3010     0.8920 c3         1 9PT       0.026600
     16 CBO         -7.8220    -0.7080     0.4080 c3         1 9PT      -0.099400
     17 CAB         -5.3010    -1.0150     0.2960 cc         1 9PT       0.166300
     18 CAC         -4.3660    -0.3640     1.0390 cd         1 9PT      -0.151000
     19 NAD         -4.9080    -1.1010    -1.0090 nc         1 9PT      -0.361000
     20 NAE         -3.7430    -0.5140    -1.1310 nd         1 9PT      -0.205800
     21 NAF         -3.3900    -0.0580     0.1180 na         1 9PT       0.133800
     22 C1          -2.1250     0.6660     0.4020 c6         1 9PT       0.281300
     23 C2          -0.8840    -0.0060    -0.2720 c6         1 9PT       0.148300
     24 O2          -0.6830    -1.3710     0.1820 oh         1 9PT      -0.707000
     25 O5          -2.2670     2.0260    -0.0720 os         1 9PT      -0.453000
     26 O6          -2.7310     4.8410     0.3560 oh         1 9PT      -0.721000
     27 O4           1.2840     3.1760    -0.0690 oh         1 9PT      -0.723000
     28 O3           1.5310     0.2480    -0.6460 os         1 9PT      -0.448000
     29 CAR          2.8280     0.4980    -0.0820 c6         1 9PT       0.359300
     30 CAS          3.7440    -0.7290    -0.3720 c6         1 9PT       0.148300
     31 OAT          3.1780    -1.9530     0.1630 oh         1 9PT      -0.718000
     32 OAU          3.3830     1.6760    -0.6930 os         1 9PT      -0.484000
     33 CAV          4.6910     2.0450    -0.1740 c6         1 9PT       0.178300
     34 CAW          5.1350     3.3730    -0.8720 c3         1 9PT       0.169600
     35 OAX          4.1560     4.4270    -0.7670 oh         1 9PT      -0.724000
     36 CAY          5.7240     0.8900    -0.4040 c6         1 9PT       0.128300
     37 OAZ          7.0050     1.2340     0.1560 oh         1 9PT      -0.727000
     38 CBA          5.1700    -0.4510     0.1850 c6         1 9PT       0.143300
     39 OBB          6.0300    -1.5870    -0.0960 os         1 9PT      -0.446000
     40 CBC          7.1380    -1.8120     0.7890 c6         1 9PT       0.360300
     41 OBD          8.2830    -1.0820     0.3070 os         1 9PT      -0.488000
     42 CBE          9.4700    -1.2300     1.1410 c6         1 9PT       0.180300
     43 CBF         10.6110    -0.3470     0.5360 c3         1 9PT       0.168600
     44 OBG         10.2290     1.0320     0.3560 oh         1 9PT      -0.720000
     45 CBH          9.8860    -2.7360     1.2330 c6         1 9PT       0.144300
     46 OBI         11.0140    -2.9380     2.1070 oh         1 9PT      -0.717000
     47 CBJ          8.6790    -3.5830     1.7310 c6         1 9PT       0.140300
     48 OBK          9.0130    -4.9820     1.7590 oh         1 9PT      -0.662000
     49 CBL          7.4540    -3.3400     0.8100 c6         1 9PT       0.117300
     50 OBM          6.3150    -4.1270     1.2380 oh         1 9PT      -0.726000
     51 H1           0.0100     2.3630    -1.5000 h1         1 9PT       0.059700
     52 H2          -1.0200     2.9020     1.3490 h1         1 9PT       0.067700
     53 H3          -0.6660     5.0020     0.0750 h1         1 9PT       0.046200
     54 H4          -1.5550     4.3440    -1.3040 h1         1 9PT       0.046200
     55 H5           0.5560     0.8240     1.1000 h1         1 9PT       0.065700
     56 H7         -12.3830     1.8410     2.0270 ha         1 9PT       0.174000
     57 H8         -13.6110     1.5820    -0.1210 ha         1 9PT       0.161000
     58 H9         -13.7930     0.6000    -2.3390 ha         1 9PT       0.148000
     59 H10        -12.9140    -0.8830    -4.1220 ha         1 9PT       0.154000
     60 H11        -10.8140    -2.1660    -3.7580 ha         1 9PT       0.152000
     61 H12         -9.5960    -1.9910    -1.6370 ha         1 9PT       0.151000
     62 H13         -9.1330    -1.4110     1.9840 h1         1 9PT       0.088200
     63 H14         -9.3040    -2.3110     0.4880 h1         1 9PT       0.088200
     64 H15         -7.8560    -0.5600    -0.6780 hc         1 9PT       0.074200
     65 H16         -7.6840     0.2850     0.8560 hc         1 9PT       0.074200
     66 H17         -6.5750    -1.7460     1.8470 hc         1 9PT       0.057200
     67 H18         -6.7450    -2.5900     0.3160 hc         1 9PT       0.057200
     68 H20         -2.0050     0.6600     1.4950 h2         1 9PT       0.074700
     69 H21         -1.0450     0.0060    -1.3610 h1         1 9PT       0.080700
     70 H22         -1.3070    -1.9440    -0.3250 ho         1 9PT       0.532000
     71 H23         -2.8910     5.7300    -0.0400 ho         1 9PT       0.511000
     72 H24          2.1000     2.7280    -0.4350 ho         1 9PT       0.554000
     73 H25          2.7460     0.6390     1.0070 h2         1 9PT       0.045700
     74 H26          3.8270    -0.8150    -1.4660 h1         1 9PT       0.071700
     75 H27          2.2140    -1.9190    -0.0520 ho         1 9PT       0.529000
     76 H28          4.6000     2.2410     0.9040 h1         1 9PT       0.064700
     77 H29          6.0840     3.6970    -0.4230 h1         1 9PT       0.043700
     78 H30          5.3360     3.1510    -1.9290 h1         1 9PT       0.043700
     79 H31          4.5160     5.2050    -1.2540 ho         1 9PT       0.510000
     80 H32          5.8290     0.7520    -1.4910 h1         1 9PT       0.057700
     81 H33          7.5780     0.4160     0.0990 ho         1 9PT       0.551000
     82 H34          5.0780    -0.3440     1.2760 h1         1 9PT       0.061700
     83 H35          6.8800    -1.4820     1.8080 h2         1 9PT       0.044700
     84 H36          9.2430    -0.8530     2.1490 h1         1 9PT       0.064700
     85 H37         11.4830    -0.4100     1.2010 h1         1 9PT       0.042200
     86 H38         10.9050    -0.7850    -0.4270 h1         1 9PT       0.042200
     87 H39         10.9970     1.4930    -0.0560 ho         1 9PT       0.510000
     88 H40         10.1430    -3.0750     0.2180 h1         1 9PT       0.057700
     89 H41         11.0000    -3.9040     2.3180 ho         1 9PT       0.528000
     90 H42          8.4130    -3.2460     2.7450 h1         1 9PT       0.052700
     91 H43          8.1420    -5.4460     1.7470 ho         1 9PT       0.467000
     92 H44          7.7350    -3.6270    -0.2160 h1         1 9PT       0.068700
     93 H45          5.5290    -3.7360     0.7800 ho         1 9PT       0.534000
     94 H19         -4.3240    -0.1070     2.0900 h4         1 9PT       0.184000
     95 CAA         -6.6090    -1.5970     0.7610 c3         1 9PT      -0.076700
     96 H6         -10.2720     0.5410     2.4200 h4         1 9PT       0.176000
@<TRIPOS>BOND
     1     1     2 1   
     2     1     4 1   
     3     1    27 1   
     4     1    51 1   
     5     2     3 1   
     6     2    25 1   
     7     2    52 1   
     8     3    26 1   
     9     3    53 1   
    10     3    54 1   
    11     4    23 1   
    12     4    28 1   
    13     4    55 1   
    14     5     6 ar  
    15     5    14 2   
    16     5    96 1   
    17     6     7 ar  
    18     6    56 1   
    19     7     8 ar  
    20     7    57 1   
    21     8     9 ar  
    22     8    13 ar  
    23     9    10 ar  
    24     9    58 1   
    25    10    11 ar  
    26    10    59 1   
    27    11    12 ar  
    28    11    60 1   
    29    12    13 ar  
    30    12    61 1   
    31    13    14 1   
    32    14    15 1   
    33    15    16 1   
    34    15    62 1   
    35    15    63 1   
    36    16    64 1   
    37    16    65 1   
    38    16    95 1   
    39    17    18 2   
    40    17    19 1   
    41    17    95 1   
    42    18    21 1   
    43    18    94 1   
    44    19    20 2   
    45    20    21 1   
    46    21    22 1   
    47    22    23 1   
    48    22    25 1   
    49    22    68 1   
    50    23    24 1   
    51    23    69 1   
    52    24    70 1   
    53    26    71 1   
    54    27    72 1   
    55    28    29 1   
    56    29    30 1   
    57    29    32 1   
    58    29    73 1   
    59    30    31 1   
    60    30    38 1   
    61    30    74 1   
    62    31    75 1   
    63    32    33 1   
    64    33    34 1   
    65    33    36 1   
    66    33    76 1   
    67    34    35 1   
    68    34    77 1   
    69    34    78 1   
    70    35    79 1   
    71    36    37 1   
    72    36    38 1   
    73    36    80 1   
    74    37    81 1   
    75    38    39 1   
    76    38    82 1   
    77    39    40 1   
    78    40    41 1   
    79    40    49 1   
    80    40    83 1   
    81    41    42 1   
    82    42    43 1   
    83    42    45 1   
    84    42    84 1   
    85    43    44 1   
    86    43    85 1   
    87    43    86 1   
    88    44    87 1   
    89    45    46 1   
    90    45    47 1   
    91    45    88 1   
    92    46    89 1   
    93    47    48 1   
    94    47    49 1   
    95    47    90 1   
    96    48    91 1   
    97    49    50 1   
    98    49    92 1   
    99    50    93 1   
   100    66    95 1   
   101    67    95 1   
@<TRIPOS>SUBSTRUCTURE
     1 9PT         1 TEMP              0 ****  ****    0 ROOT
