@<TRIPOS>MOLECULE
9PY
   25    25     1     0     0
SMALL
bcc


@<TRIPOS>ATOM
      1 OAB          2.6180    -0.4930     1.3790 o          1 9PY      -0.812300
      2 CAI          2.3490    -0.4200     0.1720 c          1 9PY       0.912600
      3 OAD          3.1410    -0.4790    -0.7950 o          1 9PY      -0.812300
      4 CAN          0.8600    -0.2370    -0.2280 c6         1 9PY       0.013800
      5 OAG          0.7790    -0.1840    -1.6300 oh         1 9PY      -0.641800
      6 CAH          0.0380    -1.4150     0.3000 c6         1 9PY      -0.068400
      7 CAL         -1.4290    -1.2940    -0.0660 c6         1 9PY       0.162100
      8 OAE         -2.1160    -2.3910     0.4910 oh         1 9PY      -0.607800
      9 CAM         -1.9960     0.0310     0.4510 c6         1 9PY       0.000100
     10 OAF         -3.3210     0.1320     0.0170 oh         1 9PY      -0.601800
     11 CAJ         -1.1310     1.1920    -0.0130 c          1 9PY       0.563100
     12 OAC         -1.6060     2.1190    -0.6260 o          1 9PY      -0.550100
     13 CAK          0.3240     1.0900     0.3610 c6         1 9PY      -0.149700
     14 CAA          1.1210     2.3120    -0.0630 c3         1 9PY      -0.065100
     15 HAG          1.7170    -0.2650    -1.8930 ho         1 9PY       0.442000
     16 HAH1         0.4350    -2.3470    -0.1120 hc         1 9PY       0.062700
     17 HAH2         0.1410    -1.4740     1.3870 hc         1 9PY       0.062700
     18 HAK          0.3710     0.9890     1.4520 hc         1 9PY       0.074700
     19 HAL         -1.5290    -1.2960    -1.1610 h1         1 9PY       0.056700
     20 HAE         -3.0370    -2.3410     0.2170 ho         1 9PY       0.401000
     21 HAM         -1.9270     0.0120     1.5520 h1         1 9PY       0.046700
     22 HAF         -3.7060     0.9450     0.3580 ho         1 9PY       0.406000
     23 HAA1         1.1250     2.4340    -1.1450 hc         1 9PY       0.035367
     24 HAA2         0.7090     3.2220     0.3740 hc         1 9PY       0.035367
     25 HAA3         2.1540     2.2330     0.2720 hc         1 9PY       0.035367
@<TRIPOS>BOND
     1     1     2 1   
     2     2     3 1   
     3     2     4 1   
     4     4     5 1   
     5     4     6 1   
     6     4    13 1   
     7     5    15 1   
     8     6     7 1   
     9     6    16 1   
    10     6    17 1   
    11     7     8 1   
    12     7     9 1   
    13     7    19 1   
    14     8    20 1   
    15     9    10 1   
    16     9    11 1   
    17     9    21 1   
    18    10    22 1   
    19    11    12 2   
    20    11    13 1   
    21    13    14 1   
    22    13    18 1   
    23    14    23 1   
    24    14    24 1   
    25    14    25 1   
@<TRIPOS>SUBSTRUCTURE
     1 9PY         1 TEMP              0 ****  ****    0 ROOT
