@<TRIPOS>MOLECULE
9PY
   25    25     1     0     0
SMALL
No Charge or Current Charge


@<TRIPOS>ATOM
      1 OAB          2.7250    -0.5660     1.3760 o          1 9PY      -0.707000
      2 CAI          2.4330    -0.4490     0.1940 c          1 9PY       0.702000
      3 OAD          3.2490    -0.5130    -0.7190 o          1 9PY      -0.707000
      4 CAN          0.9100    -0.2560    -0.2140 c6         1 9PY       0.037000
      5 OAG          0.8130    -0.2310    -1.6590 oh         1 9PY      -0.704000
      6 CAH          0.0690    -1.4540     0.3180 c6         1 9PY      -0.068400
      7 CAL         -1.4210    -1.3460    -0.0740 c6         1 9PY       0.185300
      8 OAE         -2.1530    -2.4680     0.4330 oh         1 9PY      -0.670000
      9 CAM         -2.0710    -0.0380     0.4480 c6         1 9PY       0.023300
     10 OAF         -3.4310     0.0970    -0.0510 oh         1 9PY      -0.664000
     11 CAJ         -1.2020     1.2270     0.1550 c          1 9PY       0.563100
     12 OAC         -1.7340     2.3070    -0.0930 o          1 9PY      -0.550100
     13 CAK          0.3340     1.0890     0.3370 c6         1 9PY      -0.149700
     14 CAA          1.1030     2.3660    -0.1330 c3         1 9PY      -0.065100
     15 HAG          1.7540    -0.3190    -1.9580 ho         1 9PY       0.481000
     16 HAH1         0.4820    -2.3940    -0.0740 hc         1 9PY       0.062700
     17 HAH2         0.1560    -1.5170     1.4120 hc         1 9PY       0.062700
     18 HAK          0.4650     1.0200     1.4260 hc         1 9PY       0.074700
     19 HAL         -1.4850    -1.3390    -1.1720 h1         1 9PY       0.056700
     20 HAE         -3.0960    -2.1930     0.3770 ho         1 9PY       0.440000
     21 HAM         -2.0890    -0.0990     1.5460 h1         1 9PY       0.046700
     22 HAF         -3.6280     1.0640    -0.0710 ho         1 9PY       0.445000
     23 HAA1         0.9750     2.5390    -1.2090 hc         1 9PY       0.035367
     24 HAA2         0.7470     3.2610     0.3910 hc         1 9PY       0.035367
     25 HAA3         2.1780     2.2860     0.0660 hc         1 9PY       0.035367
@<TRIPOS>BOND
     1     1     2 1   
     2     2     3 1   
     3     2     4 1   
     4     4     5 1   
     5     4     6 1   
     6     4    13 1   
     7     5    15 1   
     8     6     7 1   
     9     6    16 1   
    10     6    17 1   
    11     7     8 1   
    12     7     9 1   
    13     7    19 1   
    14     8    20 1   
    15     9    10 1   
    16     9    11 1   
    17     9    21 1   
    18    10    22 1   
    19    11    12 2   
    20    11    13 1   
    21    13    14 1   
    22    13    18 1   
    23    14    23 1   
    24    14    24 1   
    25    14    25 1   
@<TRIPOS>SUBSTRUCTURE
     1 9PY         1 TEMP              0 ****  ****    0 ROOT
