@<TRIPOS>MOLECULE
9Q5
   78    83     1     0     0
SMALL
abcg2


@<TRIPOS>ATOM
      1 O5           3.4790    -0.4540    -1.1680 oh         1 9Q5      -0.695000
      2 O4          -3.2080    -0.1340    -1.3260 oh         1 9Q5      -0.703000
      3 C13          7.5950     0.7780     1.8910 c          1 9Q5       0.672300
      4 N2          -6.4030     1.6050    -1.2120 nc         1 9Q5      -0.197800
      5 C17         10.0660     0.4110    -0.7290 ca         1 9Q5      -0.120000
      6 C11          8.8540     0.2790    -0.0710 ca         1 9Q5       0.176100
      7 C9          -3.3750     0.1730     0.0270 c6         1 9Q5       0.152300
      8 C8          -2.0850     0.7160     0.6600 c6         1 9Q5       0.259300
      9 C20          7.9610    -0.9700    -1.8970 ca         1 9Q5       0.185000
     10 N1          -7.5000     1.0020    -1.4980 nd         1 9Q5      -0.350000
     11 O1           0.9270     0.7460    -0.6510 os         1 9Q5      -0.413000
     12 O2           1.1410     2.9250    -2.4200 oh         1 9Q5      -0.707000
     13 C1           3.1180     0.2260     1.0860 c6         1 9Q5       0.184300
     14 C2           1.7960    -0.5180     1.2470 c6         1 9Q5       0.161300
     15 C3          -4.4300     1.2700     0.1160 c6         1 9Q5       0.062300
     16 C4           2.1060     1.5220    -0.7650 c6         1 9Q5       0.126300
     17 C5           2.2020     2.0330    -2.1850 c3         1 9Q5       0.169600
     18 C6           3.3200     0.6850    -0.3580 c6         1 9Q5       0.114300
     19 O3          -2.2990     1.1520     1.9690 os         1 9Q5      -0.410000
     20 C7           0.6720     0.3540     0.6620 c6         1 9Q5       0.262300
     21 C10         -4.5870     1.7930     1.5490 c6         1 9Q5       0.130300
     22 C12          7.7820    -0.4120    -0.6340 ca         1 9Q5      -0.173800
     23 C14         -3.2120     2.2330     2.0390 c6         1 9Q5       0.156300
     24 C28        -10.8050    -1.6760    -1.8750 ca         1 9Q5       0.169000
     25 C23        -10.8050    -2.9040    -1.2420 ca         1 9Q5      -0.151000
     26 C27         -9.7570    -0.7850    -1.7760 ca         1 9Q5      -0.125000
     27 C26         -8.6460    -1.1310    -1.0070 ca         1 9Q5      -0.076500
     28 C25         -8.6240    -2.3680    -0.3600 ca         1 9Q5      -0.125000
     29 C24         -9.6940    -3.2400    -0.4800 ca         1 9Q5      -0.087000
     30 C22         -7.5270    -0.2020    -0.8820 cd         1 9Q5       0.246500
     31 C21         -6.3560    -0.3280    -0.1720 cc         1 9Q5      -0.186000
     32 N           -5.6990     0.8160    -0.4160 na         1 9Q5       0.135800
     33 O7          -5.0990     0.7960     2.3960 oh         1 9Q5      -0.706000
     34 C16         -3.2450     2.7410     3.4630 c3         1 9Q5       0.172600
     35 O8          -1.9960     3.3170     3.7610 oh         1 9Q5      -0.713000
     36 S           -0.8590    -0.6100     0.6830 ss         1 9Q5      -0.366000
     37 O            1.5970    -0.7370     2.6150 oh         1 9Q5      -0.706000
     38 O10          4.1460    -0.6140     1.5480 os         1 9Q5      -0.427000
     39 C29          5.2280     0.0050     2.1860 c3         1 9Q5       0.213800
     40 C            6.4550     0.0720     1.3200 cc         1 9Q5      -0.248400
     41 C15          6.5600    -0.5100     0.1130 cd         1 9Q5      -0.066200
     42 C19          9.1610    -0.8470    -2.5600 ca         1 9Q5       0.106000
     43 F            9.2980    -1.3960    -3.7690 f          1 9Q5      -0.154000
     44 C18         10.2150    -0.1590    -1.9800 ca         1 9Q5      -0.083000
     45 O6           8.7270     0.8420     1.1510 os         1 9Q5      -0.327200
     46 O9           7.6050     1.3070     2.9730 o          1 9Q5      -0.478000
     47 H1           3.9010    -0.2020    -1.9940 ho         1 9Q5       0.504000
     48 H2          -2.6340    -0.9030    -1.4060 ho         1 9Q5       0.530000
     49 H3          10.8830     0.9520    -0.2710 ha         1 9Q5       0.149000
     50 H4          -3.7010    -0.7000     0.6110 h1         1 9Q5       0.065700
     51 H5          -1.6970     1.5260     0.0240 h2         1 9Q5       0.083700
     52 H6           1.2030     3.2280    -3.3300 ho         1 9Q5       0.509000
     53 H7           3.0670     1.1360     1.7030 h1         1 9Q5       0.053700
     54 H8           1.8430    -1.4620     0.6840 h1         1 9Q5       0.079700
     55 H9          -4.1220     2.1040    -0.5220 h1         1 9Q5       0.109700
     56 H10          2.0580     2.3900    -0.0870 h1         1 9Q5       0.056700
     57 H11          2.1780     1.1870    -2.8830 h1         1 9Q5       0.028200
     58 H12          3.1790     2.5210    -2.2980 h1         1 9Q5       0.028200
     59 H13          4.2070     1.3330    -0.3950 h1         1 9Q5       0.040700
     60 H14          0.5300     1.2240     1.3210 h2         1 9Q5       0.077700
     61 H15         -5.2380     2.6730     1.5210 h1         1 9Q5       0.061700
     62 H16         -2.8760     3.0540     1.3830 h1         1 9Q5       0.059700
     63 H18         -9.8030     0.1660    -2.2910 ha         1 9Q5       0.152000
     64 H19         -7.7730    -2.6570     0.2420 ha         1 9Q5       0.112000
     65 H20         -9.6670    -4.1950     0.0280 ha         1 9Q5       0.116000
     66 H21         -5.9610    -1.1180     0.4430 h4         1 9Q5       0.175000
     67 H22         -6.0400     0.9430     2.5240 ho         1 9Q5       0.514000
     68 H23         -4.0580     3.4750     3.5400 h1         1 9Q5       0.036200
     69 H24         -3.4880     1.9170     4.1430 h1         1 9Q5       0.036200
     70 H25         -2.0180     3.6180     4.6740 ho         1 9Q5       0.509000
     71 H26          0.8030    -1.2710     2.7300 ho         1 9Q5       0.524000
     72 H27          4.9690     1.0140     2.5310 h1         1 9Q5       0.070200
     73 H28          5.4690    -0.5710     3.0860 h1         1 9Q5       0.070200
     74 H29          5.7200    -1.0470    -0.3060 ha         1 9Q5       0.232000
     75 H30         11.1520    -0.0730    -2.5140 ha         1 9Q5       0.145000
     76 F1           6.9540    -1.6290    -2.4670 f          1 9Q5      -0.149000
     77 H17        -11.6450    -3.5790    -1.3400 ha         1 9Q5       0.132000
     78 F2         -11.8700    -1.3320    -2.6170 f          1 9Q5      -0.179000
@<TRIPOS>BOND
     1     1    18 1   
     2     1    47 1   
     3     2     7 1   
     4     2    48 1   
     5     3    40 1   
     6     3    45 1   
     7     3    46 2   
     8     4    10 2   
     9     4    32 1   
    10     5     6 ar  
    11     5    44 ar  
    12     5    49 1   
    13     6    22 ar  
    14     6    45 1   
    15     7     8 1   
    16     7    15 1   
    17     7    50 1   
    18     8    19 1   
    19     8    36 1   
    20     8    51 1   
    21     9    22 ar  
    22     9    42 ar  
    23     9    76 1   
    24    10    30 1   
    25    11    16 1   
    26    11    20 1   
    27    12    17 1   
    28    12    52 1   
    29    13    14 1   
    30    13    18 1   
    31    13    38 1   
    32    13    53 1   
    33    14    20 1   
    34    14    37 1   
    35    14    54 1   
    36    15    21 1   
    37    15    32 1   
    38    15    55 1   
    39    16    17 1   
    40    16    18 1   
    41    16    56 1   
    42    17    57 1   
    43    17    58 1   
    44    18    59 1   
    45    19    23 1   
    46    20    36 1   
    47    20    60 1   
    48    21    23 1   
    49    21    33 1   
    50    21    61 1   
    51    22    41 1   
    52    23    34 1   
    53    23    62 1   
    54    24    25 ar  
    55    24    26 ar  
    56    24    78 1   
    57    25    29 ar  
    58    25    77 1   
    59    26    27 ar  
    60    26    63 1   
    61    27    28 ar  
    62    27    30 1   
    63    28    29 ar  
    64    28    64 1   
    65    29    65 1   
    66    30    31 2   
    67    31    32 1   
    68    31    66 1   
    69    33    67 1   
    70    34    35 1   
    71    34    68 1   
    72    34    69 1   
    73    35    70 1   
    74    37    71 1   
    75    38    39 1   
    76    39    40 1   
    77    39    72 1   
    78    39    73 1   
    79    40    41 2   
    80    41    74 1   
    81    42    43 1   
    82    42    44 ar  
    83    44    75 1   
@<TRIPOS>SUBSTRUCTURE
     1 9Q5         1 TEMP              0 ****  ****    0 ROOT
