@<TRIPOS>MOLECULE
9Q5
   78    83     1     0     0
SMALL
No Charge or Current Charge


@<TRIPOS>ATOM
      1 O5           3.9080     0.2430    -0.7040 oh         1 9Q5      -0.695000
      2 O4          -3.2630    -0.6590    -1.4940 oh         1 9Q5      -0.703000
      3 C13          6.9760     1.4410     1.0620 c          1 9Q5       0.672300
      4 N2          -6.4190     1.6320    -1.5550 nc         1 9Q5      -0.197800
      5 C17          9.1190     0.9600    -1.9010 ca         1 9Q5      -0.120000
      6 C11          8.2410     0.6390    -0.8530 ca         1 9Q5       0.176100
      7 C9          -3.3820    -0.0530    -0.1870 c6         1 9Q5       0.152300
      8 C8          -1.9860     0.4100     0.3460 c6         1 9Q5       0.259300
      9 C20          8.2220    -1.6820    -1.5720 ca         1 9Q5       0.185000
     10 N1          -7.5630     1.0440    -1.7770 nd         1 9Q5      -0.350000
     11 O1           1.0220     0.8320    -0.1410 os         1 9Q5      -0.413000
     12 O2           1.0420     3.4760    -1.3650 oh         1 9Q5      -0.707000
     13 C1           3.1710     0.0160     1.6430 c6         1 9Q5       0.184300
     14 C2           1.9220    -0.8890     1.3730 c6         1 9Q5       0.161300
     15 C3          -4.3530     1.1710    -0.2290 c6         1 9Q5       0.062300
     16 C4           2.1040     1.7580     0.1200 c6         1 9Q5       0.126300
     17 C5           2.2430     2.7260    -1.1000 c3         1 9Q5       0.169600
     18 C6           3.4220     0.9830     0.4360 c6         1 9Q5       0.114300
     19 O3          -2.1270     1.0600     1.6240 os         1 9Q5      -0.410000
     20 C7           0.6960    -0.0000     0.9890 c6         1 9Q5       0.262300
     21 C10         -4.4110     1.8880     1.1580 c6         1 9Q5       0.130300
     22 C12          7.7860    -0.6780    -0.6810 ca         1 9Q5      -0.173800
     23 C14         -2.9490     2.2540     1.5790 c6         1 9Q5       0.156300
     24 C28        -11.0070    -1.6390    -1.8930 ca         1 9Q5       0.169000
     25 C23        -10.9780    -2.8310    -1.1560 ca         1 9Q5      -0.151000
     26 C27         -9.9110    -0.7620    -1.8720 ca         1 9Q5      -0.125000
     27 C26         -8.7620    -1.0680    -1.1080 ca         1 9Q5      -0.076500
     28 C25         -8.7430    -2.2720    -0.3680 ca         1 9Q5      -0.125000
     29 C24         -9.8430    -3.1480    -0.3920 ca         1 9Q5      -0.087000
     30 C22         -7.6040    -0.1470    -1.0820 cd         1 9Q5       0.246500
     31 C21         -6.4330    -0.3050    -0.3950 cc         1 9Q5      -0.186000
     32 N           -5.7110     0.8210    -0.7170 na         1 9Q5       0.135800
     33 O7          -5.0470     1.0460     2.1470 oh         1 9Q5      -0.706000
     34 C16         -2.8730     2.9660     2.9700 c3         1 9Q5       0.172600
     35 O8          -1.5310     3.3400     3.3430 oh         1 9Q5      -0.713000
     36 S           -0.7990    -0.9910     0.5490 ss         1 9Q5      -0.366000
     37 O            1.6250    -1.7370     2.5120 oh         1 9Q5      -0.706000
     38 O10          4.3350    -0.8070     1.9370 os         1 9Q5      -0.427000
     39 C29          5.5230    -0.1540     2.4290 c3         1 9Q5       0.213800
     40 C            6.4620     0.0560     1.2640 cc         1 9Q5      -0.248400
     41 C15          6.8720    -0.9590     0.4240 cd         1 9Q5      -0.066200
     42 C19          9.1030    -1.3620    -2.6230 ca         1 9Q5       0.106000
     43 F            9.5230    -2.3210    -3.4800 f          1 9Q5      -0.154000
     44 C18          9.5530    -0.0410    -2.7900 ca         1 9Q5      -0.083000
     45 O6           7.8330     1.6280     0.0060 os         1 9Q5      -0.327200
     46 O9           6.6670     2.3810     1.7800 o          1 9Q5      -0.478000
     47 H1           4.6050    -0.3610    -0.3590 ho         1 9Q5       0.504000
     48 H2          -2.6160    -1.3990    -1.4090 ho         1 9Q5       0.530000
     49 H3           9.4640     1.9840    -2.0210 ha         1 9Q5       0.149000
     50 H4          -3.7770    -0.7880     0.5290 h1         1 9Q5       0.065700
     51 H5          -1.5340     1.1070    -0.3770 h2         1 9Q5       0.083700
     52 H6           1.2030     3.9930    -2.1880 ho         1 9Q5       0.509000
     53 H7           2.9540     0.6260     2.5320 h1         1 9Q5       0.053700
     54 H8           2.1520    -1.5170     0.4980 h1         1 9Q5       0.079700
     55 H9          -3.9350     1.8870    -0.9500 h1         1 9Q5       0.109700
     56 H10          1.8350     2.3700     0.9950 h1         1 9Q5       0.056700
     57 H11          2.5170     2.1350    -1.9840 h1         1 9Q5       0.028200
     58 H12          3.0760     3.4130    -0.8960 h1         1 9Q5       0.028200
     59 H13          4.1740     1.7250     0.7400 h1         1 9Q5       0.040700
     60 H14          0.4200     0.6300     1.8480 h2         1 9Q5       0.077700
     61 H15         -4.9760     2.8260     1.0420 h1         1 9Q5       0.061700
     62 H16         -2.5240     2.9430     0.8340 h1         1 9Q5       0.059700
     63 H18         -9.9630     0.1550    -2.4540 ha         1 9Q5       0.152000
     64 H19         -7.8760    -2.5390     0.2300 ha         1 9Q5       0.112000
     65 H20         -9.8140    -4.0720     0.1830 ha         1 9Q5       0.116000
     66 H21         -6.0770    -1.0860     0.2610 h4         1 9Q5       0.175000
     67 H22         -6.0150     1.2300     2.1170 ho         1 9Q5       0.514000
     68 H23         -3.5140     3.8580     2.9310 h1         1 9Q5       0.036200
     69 H24         -3.2980     2.2930     3.7270 h1         1 9Q5       0.036200
     70 H25         -1.5790     3.7100     4.2560 ho         1 9Q5       0.509000
     71 H26          0.8350    -2.2730     2.2680 ho         1 9Q5       0.524000
     72 H27          5.2760     0.7810     2.9490 h1         1 9Q5       0.070200
     73 H28          6.0250    -0.8030     3.1590 h1         1 9Q5       0.070200
     74 H29          6.5140    -1.9740     0.5970 ha         1 9Q5       0.232000
     75 H30         10.2330     0.2030    -3.6020 ha         1 9Q5       0.145000
     76 F1           7.7920    -2.9570    -1.4190 f          1 9Q5      -0.149000
     77 H17        -11.8310    -3.5040    -1.1770 ha         1 9Q5       0.132000
     78 F2         -12.0980    -1.3320    -2.6280 f          1 9Q5      -0.179000
@<TRIPOS>BOND
     1     1    18 1   
     2     1    47 1   
     3     2     7 1   
     4     2    48 1   
     5     3    40 1   
     6     3    45 1   
     7     3    46 2   
     8     4    10 2   
     9     4    32 1   
    10     5     6 ar  
    11     5    44 ar  
    12     5    49 1   
    13     6    22 ar  
    14     6    45 1   
    15     7     8 1   
    16     7    15 1   
    17     7    50 1   
    18     8    19 1   
    19     8    36 1   
    20     8    51 1   
    21     9    22 ar  
    22     9    42 ar  
    23     9    76 1   
    24    10    30 1   
    25    11    16 1   
    26    11    20 1   
    27    12    17 1   
    28    12    52 1   
    29    13    14 1   
    30    13    18 1   
    31    13    38 1   
    32    13    53 1   
    33    14    20 1   
    34    14    37 1   
    35    14    54 1   
    36    15    21 1   
    37    15    32 1   
    38    15    55 1   
    39    16    17 1   
    40    16    18 1   
    41    16    56 1   
    42    17    57 1   
    43    17    58 1   
    44    18    59 1   
    45    19    23 1   
    46    20    36 1   
    47    20    60 1   
    48    21    23 1   
    49    21    33 1   
    50    21    61 1   
    51    22    41 1   
    52    23    34 1   
    53    23    62 1   
    54    24    25 ar  
    55    24    26 ar  
    56    24    78 1   
    57    25    29 ar  
    58    25    77 1   
    59    26    27 ar  
    60    26    63 1   
    61    27    28 ar  
    62    27    30 1   
    63    28    29 ar  
    64    28    64 1   
    65    29    65 1   
    66    30    31 2   
    67    31    32 1   
    68    31    66 1   
    69    33    67 1   
    70    34    35 1   
    71    34    68 1   
    72    34    69 1   
    73    35    70 1   
    74    37    71 1   
    75    38    39 1   
    76    39    40 1   
    77    39    72 1   
    78    39    73 1   
    79    40    41 2   
    80    41    74 1   
    81    42    43 1   
    82    42    44 ar  
    83    44    75 1   
@<TRIPOS>SUBSTRUCTURE
     1 9Q5         1 TEMP              0 ****  ****    0 ROOT
