@<TRIPOS>MOLECULE
9Q9
   49    52     1     0     0
SMALL
No Charge or Current Charge


@<TRIPOS>ATOM
      1 C4          -0.5020    -1.9240    -0.2560 cc         1 9Q9       0.756800
      2 C6          -2.3780    -0.6940     0.0820 cd         1 9Q9       0.186400
      3 C7          -3.0360    -1.8080     0.4350 cc         1 9Q9      -0.368600
      4 C8          -2.4430    -3.1190     0.4640 c          1 9Q9       0.635600
      5 C12         -4.3430    -1.4230     0.7430 cc         1 9Q9       0.327900
      6 N3           0.8000    -2.0500    -0.6040 nu         1 9Q9      -0.900400
      7 C13         -3.0790     1.7760    -0.0930 c5         1 9Q9       0.097300
      8 C1           3.2050    -1.2220    -0.3490 c          1 9Q9       0.598100
      9 C2           1.7620    -0.9490    -0.9200 c3         1 9Q9       0.174500
     10 N5          -1.0390    -0.7120    -0.2910 nd         1 9Q9      -0.732100
     11 N9          -1.1460    -3.0670     0.0940 ns         1 9Q9      -0.458400
     12 N10         -3.3040     0.3490     0.1840 na         1 9Q9       0.126800
     13 N11         -4.5550    -0.1220     0.6070 nd         1 9Q9      -0.523800
     14 O14          3.5890    -2.3670    -0.1190 o          1 9Q9      -0.612100
     15 O15         -3.0120    -4.1520     0.7760 o          1 9Q9      -0.536000
     16 C16         -3.3700     2.7400     1.0860 c5         1 9Q9      -0.089400
     17 C17         -3.2100     4.1350     0.4140 c5         1 9Q9      -0.079900
     18 C18         -3.6340     3.9120    -1.0750 c5         1 9Q9      -0.079900
     19 C19         -4.0160     2.4060    -1.1570 c5         1 9Q9      -0.089400
     20 C20          1.7870    -0.7400    -2.4510 c3         1 9Q9      -0.115100
     21 N21          4.0640    -0.1280    -0.0930 n          1 9Q9      -0.410800
     22 C22          5.4390    -0.3040     0.4250 c5         1 9Q9       0.100000
     23 C23          5.7660     1.1170     0.9510 c5         1 9Q9      -0.128400
     24 C24          5.0470     2.0130    -0.0840 c5         1 9Q9       0.182300
     25 C25          3.6760     1.3000    -0.2170 c5         1 9Q9       0.070000
     26 F26          4.9020     3.3160     0.3950 f          1 9Q9      -0.251000
     27 H1          -5.1590    -2.0570     1.0670 h4         1 9Q9       0.048100
     28 H2           1.2050    -2.9600    -0.3950 hn         1 9Q9       0.523000
     29 H3          -2.0350     1.8940    -0.4120 h1         1 9Q9       0.075700
     30 H4           1.4210    -0.0160    -0.4530 h1         1 9Q9       0.093700
     31 H5          -0.6540    -3.9430     0.0720 hn         1 9Q9       0.325500
     32 H6          -4.3840     2.6040     1.4820 hc         1 9Q9       0.058200
     33 H7          -2.6750     2.5990     1.9210 hc         1 9Q9       0.058200
     34 H8          -3.8240     4.8950     0.9100 hc         1 9Q9       0.046200
     35 H9          -2.1710     4.4810     0.4710 hc         1 9Q9       0.046200
     36 H10         -4.4710     4.5570    -1.3670 hc         1 9Q9       0.046200
     37 H11         -2.8030     4.1440    -1.7510 hc         1 9Q9       0.046200
     38 H12         -3.8510     1.9900    -2.1570 hc         1 9Q9       0.058200
     39 H13         -5.0740     2.2490    -0.9120 hc         1 9Q9       0.058200
     40 H14          2.4740     0.0660    -2.7300 hc         1 9Q9       0.054033
     41 H15          2.1130    -1.6550    -2.9600 hc         1 9Q9       0.054033
     42 H16          0.7880    -0.4770    -2.8200 hc         1 9Q9       0.054033
     43 H17          5.4960    -1.0580     1.2220 h1         1 9Q9       0.064700
     44 H18          6.1190    -0.6030    -0.3850 h1         1 9Q9       0.064700
     45 H19          5.3550     1.2680     1.9570 hc         1 9Q9       0.072700
     46 H20          6.8430     1.3090     1.0030 hc         1 9Q9       0.072700
     47 H21          5.5850     2.0410    -1.0410 h1         1 9Q9       0.065700
     48 H22          3.2030     1.5320    -1.1790 h1         1 9Q9       0.065700
     49 H23          2.9920     1.5910     0.5920 h1         1 9Q9       0.065700
@<TRIPOS>BOND
     1     1     6 1   
     2     1    10 2   
     3     1    11 1   
     4     2     3 2   
     5     2    10 1   
     6     2    12 1   
     7     3     4 1   
     8     3     5 1   
     9     4    11 1   
    10     4    15 2   
    11     5    13 2   
    12     5    27 1   
    13     6     9 1   
    14     6    28 1   
    15     7    12 1   
    16     7    16 1   
    17     7    19 1   
    18     7    29 1   
    19     8     9 1   
    20     8    14 2   
    21     8    21 1   
    22     9    20 1   
    23     9    30 1   
    24    11    31 1   
    25    12    13 1   
    26    16    17 1   
    27    16    32 1   
    28    16    33 1   
    29    17    18 1   
    30    17    34 1   
    31    17    35 1   
    32    18    19 1   
    33    18    36 1   
    34    18    37 1   
    35    19    38 1   
    36    19    39 1   
    37    20    40 1   
    38    20    41 1   
    39    20    42 1   
    40    21    22 1   
    41    21    25 1   
    42    22    23 1   
    43    22    43 1   
    44    22    44 1   
    45    23    24 1   
    46    23    45 1   
    47    23    46 1   
    48    24    25 1   
    49    24    26 1   
    50    24    47 1   
    51    25    48 1   
    52    25    49 1   
@<TRIPOS>SUBSTRUCTURE
     1 9Q9         1 TEMP              0 ****  ****    0 ROOT
