@<TRIPOS>MOLECULE
9Q9
   49    52     1     0     0
SMALL
bcc


@<TRIPOS>ATOM
      1 C4          -0.4420    -1.7780    -0.0470 cc         1 9Q9       0.756800
      2 C6          -2.3350    -0.6360     0.1570 cd         1 9Q9       0.237100
      3 C7          -3.1150    -1.7540     0.4470 cc         1 9Q9      -0.433900
      4 C8          -2.4880    -3.0340     0.4960 c          1 9Q9       0.778100
      5 C12         -4.4200    -1.2460     0.6010 cc         1 9Q9       0.393200
      6 N3           0.8720    -1.8990    -0.2620 nu         1 9Q9      -0.845200
      7 C13         -2.8350     1.7960    -0.1400 c5         1 9Q9       0.068000
      8 C1           3.1470    -1.1750    -0.3450 c          1 9Q9       0.665100
      9 C2           1.7040    -0.7830    -0.6450 c3         1 9Q9       0.174500
     10 N5          -1.0150    -0.6030    -0.0910 nd         1 9Q9      -0.732100
     11 N9          -1.1210    -2.9360     0.2280 ns         1 9Q9      -0.525400
     12 N10         -3.1630     0.4190     0.1600 na         1 9Q9       0.105400
     13 N11         -4.4340     0.0520     0.4240 nd         1 9Q9      -0.523800
     14 O14          3.4940    -2.3490    -0.4010 o          1 9Q9      -0.612100
     15 O15         -2.9980    -4.1170     0.7280 o          1 9Q9      -0.611500
     16 C16         -3.2460     2.7730     0.9660 c5         1 9Q9      -0.089400
     17 C17         -3.4240     4.0910     0.2210 c5         1 9Q9      -0.079900
     18 C18         -4.1410     3.6660    -1.0610 c5         1 9Q9      -0.079900
     19 C19         -3.4980     2.3220    -1.4370 c5         1 9Q9      -0.089400
     20 C20          1.5660    -0.4490    -2.1330 c3         1 9Q9      -0.115100
     21 N21          4.0050    -0.1870    -0.0750 n          1 9Q9      -0.477800
     22 C22          5.4230    -0.4670     0.1630 c5         1 9Q9       0.100000
     23 C23          5.9650     0.8570     0.6850 c5         1 9Q9      -0.128400
     24 C24          5.0670     1.8720     0.0100 c5         1 9Q9       0.163600
     25 C25          3.6880     1.2270     0.0590 c5         1 9Q9       0.070000
     26 F26          5.0650     3.0970     0.6570 f          1 9Q9      -0.232300
     27 H1          -5.3300    -1.7790     0.8320 h4         1 9Q9       0.048100
     28 H2           1.2860    -2.8170    -0.3320 hn         1 9Q9       0.467800
     29 H3          -1.7500     1.8130    -0.2510 h1         1 9Q9       0.075700
     30 H4           1.4010     0.0800    -0.0510 h1         1 9Q9       0.093700
     31 H5          -0.6040    -3.8060     0.2390 hn         1 9Q9       0.325500
     32 H6          -4.2010     2.4620     1.3980 hc         1 9Q9       0.058200
     33 H7          -2.5130     2.8160     1.7720 hc         1 9Q9       0.058200
     34 H8          -3.9830     4.8300     0.7970 hc         1 9Q9       0.046200
     35 H9          -2.4500     4.5290    -0.0140 hc         1 9Q9       0.046200
     36 H10         -5.2040     3.5280    -0.8510 hc         1 9Q9       0.046200
     37 H11         -4.0630     4.4050    -1.8580 hc         1 9Q9       0.046200
     38 H12         -2.7410     2.4500    -2.2110 hc         1 9Q9       0.058200
     39 H13         -4.2310     1.6150    -1.8250 hc         1 9Q9       0.058200
     40 H14          2.1940     0.3970    -2.4160 hc         1 9Q9       0.054033
     41 H15          1.8540    -1.3030    -2.7450 hc         1 9Q9       0.054033
     42 H16          0.5340    -0.1880    -2.3580 hc         1 9Q9       0.054033
     43 H17          5.5490    -1.2770     0.8800 h1         1 9Q9       0.064700
     44 H18          5.9090    -0.7650    -0.7680 h1         1 9Q9       0.064700
     45 H19          5.8340     0.9210     1.7680 hc         1 9Q9       0.072700
     46 H20          7.0210     0.9920     0.4570 hc         1 9Q9       0.072700
     47 H21          5.3760     2.0440    -1.0240 h1         1 9Q9       0.065700
     48 H22          3.0410     1.5850    -0.7410 h1         1 9Q9       0.065700
     49 H23          3.2100     1.4440     1.0180 h1         1 9Q9       0.065700
@<TRIPOS>BOND
     1     1     6 1   
     2     1    10 2   
     3     1    11 1   
     4     2     3 2   
     5     2    10 1   
     6     2    12 1   
     7     3     4 1   
     8     3     5 1   
     9     4    11 1   
    10     4    15 2   
    11     5    13 2   
    12     5    27 1   
    13     6     9 1   
    14     6    28 1   
    15     7    12 1   
    16     7    16 1   
    17     7    19 1   
    18     7    29 1   
    19     8     9 1   
    20     8    14 2   
    21     8    21 1   
    22     9    20 1   
    23     9    30 1   
    24    11    31 1   
    25    12    13 1   
    26    16    17 1   
    27    16    32 1   
    28    16    33 1   
    29    17    18 1   
    30    17    34 1   
    31    17    35 1   
    32    18    19 1   
    33    18    36 1   
    34    18    37 1   
    35    19    38 1   
    36    19    39 1   
    37    20    40 1   
    38    20    41 1   
    39    20    42 1   
    40    21    22 1   
    41    21    25 1   
    42    22    23 1   
    43    22    43 1   
    44    22    44 1   
    45    23    24 1   
    46    23    45 1   
    47    23    46 1   
    48    24    25 1   
    49    24    26 1   
    50    24    47 1   
    51    25    48 1   
    52    25    49 1   
@<TRIPOS>SUBSTRUCTURE
     1 9Q9         1 TEMP              0 ****  ****    0 ROOT
