@<TRIPOS>MOLECULE
9QA
   54    57     1     0     0
SMALL
No Charge or Current Charge


@<TRIPOS>ATOM
      1 C01         -9.5210    -0.5460    -0.9750 ca         1 9QA      -0.111000
      2 C02         -9.2790    -0.2640     0.3810 ca         1 9QA      -0.109500
      3 C03         -8.0900     0.3790     0.7640 ca         1 9QA      -0.108000
      4 C04         -7.1360     0.7460    -0.2060 ca         1 9QA      -0.086300
      5 C05         -7.3830     0.4590    -1.5620 ca         1 9QA      -0.108000
      6 C06         -8.5720    -0.1850    -1.9460 ca         1 9QA      -0.109500
      7 C07         -5.8440     1.4370     0.2100 c3         1 9QA      -0.020100
      8 C08         -4.7170     0.4190     0.5010 c3         1 9QA      -0.152400
      9 C09         -3.3650     1.0200     0.9330 c          1 9QA       0.607100
     10 O10         -3.2090     2.2340     0.9810 o          1 9QA      -0.605100
     11 N11         -2.3110     0.1460     1.2990 n          1 9QA      -0.416800
     12 C12         -2.3260    -1.3270     1.0870 c6         1 9QA       0.101500
     13 C13         -1.3050    -1.7230    -0.0070 c6         1 9QA      -0.109400
     14 C14          0.1310    -1.2280     0.3270 c6         1 9QA       0.170000
     15 C15          0.0910     0.2970     0.6440 c6         1 9QA      -0.109400
     16 C16         -0.9750     0.6480     1.7120 c6         1 9QA       0.101500
     17 C17          1.0870    -1.5350    -0.8770 c3         1 9QA       0.068000
     18 N18          2.5270    -1.2170    -0.6680 n          1 9QA      -0.338300
     19 C19          3.3480    -2.1320    -0.0210 cc         1 9QA       0.506800
     20 N20          4.6510    -1.9920     0.2340 nd         1 9QA      -0.622100
     21 C21          5.2140    -0.7940    -0.2200 ca         1 9QA       0.189400
     22 C22          6.5830    -0.5890     0.0270 ca         1 9QA      -0.100000
     23 C23          7.2220     0.5840    -0.4000 ca         1 9QA       0.152000
     24 C24          6.4990     1.5700    -1.0830 ca         1 9QA      -0.128000
     25 C25          5.1320     1.3790    -1.3380 ca         1 9QA      -0.032000
     26 C26          4.4900     0.1970    -0.9060 ca         1 9QA      -0.208600
     27 C27          3.0460    -0.0230    -1.1660 c          1 9QA       0.573600
     28 O28          2.3650     0.7950    -1.7700 o          1 9QA      -0.532000
     29 Cl1          8.9360     0.8180    -0.0780 cl         1 9QA      -0.188000
     30 O30          0.6070    -1.9410     1.4750 oh         1 9QA      -0.668000
     31 H011       -10.4420    -1.0450    -1.2710 ha         1 9QA       0.112000
     32 H021       -10.0130    -0.5450     1.1340 ha         1 9QA       0.112000
     33 H031        -7.9090     0.5910     1.8160 ha         1 9QA       0.111500
     34 H051        -6.6520     0.7320    -2.3200 ha         1 9QA       0.111500
     35 H061        -8.7580    -0.4050    -2.9950 ha         1 9QA       0.112000
     36 H072        -5.5160     2.1260    -0.5780 hc         1 9QA       0.064200
     37 H071        -6.0160     2.0520     1.1020 hc         1 9QA       0.064200
     38 H081        -5.0230    -0.3090     1.2610 hc         1 9QA       0.060200
     39 H082        -4.5360    -0.2270    -0.3650 hc         1 9QA       0.060200
     40 H122        -2.0620    -1.8240     2.0310 h1         1 9QA       0.060200
     41 H121        -3.3190    -1.6970     0.8070 h1         1 9QA       0.060200
     42 H131        -1.3100    -2.8140    -0.1340 hc         1 9QA       0.062950
     43 H132        -1.6310    -1.2990    -0.9670 hc         1 9QA       0.062950
     44 H151         1.0750     0.6510     0.9780 hc         1 9QA       0.062950
     45 H152        -0.1370     0.8550    -0.2750 hc         1 9QA       0.062950
     46 H161        -0.9900     1.7350     1.8700 h1         1 9QA       0.060200
     47 H162        -0.7040     0.1900     2.6740 h1         1 9QA       0.060200
     48 H172         1.0050    -2.6060    -1.1070 h1         1 9QA       0.075200
     49 H171         0.7120    -1.0070    -1.7630 h1         1 9QA       0.075200
     50 H191         2.8390    -3.0360     0.2930 h5         1 9QA       0.060800
     51 H221         7.1540    -1.3470     0.5550 ha         1 9QA       0.150000
     52 H241         6.9950     2.4790    -1.4140 ha         1 9QA       0.137000
     53 H251         4.5760     2.1500    -1.8690 ha         1 9QA       0.141000
     54 H301         1.1790    -1.3250     1.9810 ho         1 9QA       0.453000
@<TRIPOS>BOND
     1     1     2 ar  
     2     1     6 ar  
     3     1    31 1   
     4     2     3 ar  
     5     2    32 1   
     6     3     4 ar  
     7     3    33 1   
     8     4     5 ar  
     9     4     7 1   
    10     5     6 ar  
    11     5    34 1   
    12     6    35 1   
    13     7     8 1   
    14     7    36 1   
    15     7    37 1   
    16     8     9 1   
    17     8    38 1   
    18     8    39 1   
    19     9    10 2   
    20     9    11 1   
    21    11    12 1   
    22    11    16 1   
    23    12    13 1   
    24    12    40 1   
    25    12    41 1   
    26    13    14 1   
    27    13    42 1   
    28    13    43 1   
    29    14    15 1   
    30    14    17 1   
    31    14    30 1   
    32    15    16 1   
    33    15    44 1   
    34    15    45 1   
    35    16    46 1   
    36    16    47 1   
    37    17    18 1   
    38    17    48 1   
    39    17    49 1   
    40    18    19 1   
    41    18    27 1   
    42    19    20 2   
    43    19    50 1   
    44    20    21 1   
    45    21    22 ar  
    46    21    26 ar  
    47    22    23 ar  
    48    22    51 1   
    49    23    24 ar  
    50    23    29 1   
    51    24    25 ar  
    52    24    52 1   
    53    25    26 ar  
    54    25    53 1   
    55    26    27 1   
    56    27    28 2   
    57    30    54 1   
@<TRIPOS>SUBSTRUCTURE
     1 9QA         1 TEMP              0 ****  ****    0 ROOT
