@<TRIPOS>MOLECULE
9QA
   54    57     1     0     0
SMALL
abcg2


@<TRIPOS>ATOM
      1 C01         -9.4140    -0.6960    -0.7700 ca         1 9QA      -0.111000
      2 C02         -9.0650    -0.5430     0.5660 ca         1 9QA      -0.109500
      3 C03         -7.9100     0.1460     0.9090 ca         1 9QA      -0.108000
      4 C04         -7.0850     0.6950    -0.0710 ca         1 9QA      -0.086300
      5 C05         -7.4460     0.5350    -1.4070 ca         1 9QA      -0.108000
      6 C06         -8.6010    -0.1540    -1.7560 ca         1 9QA      -0.109500
      7 C07         -5.8140     1.4070     0.3030 c3         1 9QA      -0.020100
      8 C08         -4.6630     0.4140     0.4360 c3         1 9QA      -0.152400
      9 C09         -3.3500     1.0780     0.8110 c          1 9QA       0.607100
     10 O10         -3.2770     2.2960     0.9280 o          1 9QA      -0.605100
     11 N11         -2.2830     0.2730     1.0140 n          1 9QA      -0.416800
     12 C12         -2.2830    -1.1720     0.8800 c6         1 9QA       0.101500
     13 C13         -1.2530    -1.6210    -0.1470 c6         1 9QA      -0.109400
     14 C14          0.1460    -1.0930     0.1740 c6         1 9QA       0.170000
     15 C15          0.0720     0.4240     0.3580 c6         1 9QA      -0.109400
     16 C16         -0.9890     0.8200     1.3780 c6         1 9QA       0.101500
     17 C17          1.0770    -1.5010    -0.9790 c3         1 9QA       0.068000
     18 N18          2.4820    -1.2100    -0.7170 n          1 9QA      -0.338300
     19 C19          3.2040    -2.1150     0.0050 cc         1 9QA       0.506800
     20 N20          4.4340    -1.9990     0.3450 nd         1 9QA      -0.622100
     21 C21          5.0890    -0.8620    -0.0590 ca         1 9QA       0.189400
     22 C22          6.4310    -0.6950     0.3090 ca         1 9QA      -0.100000
     23 C23          7.1020     0.4320    -0.1020 ca         1 9QA       0.152000
     24 C24          6.4860     1.4180    -0.8790 ca         1 9QA      -0.128000
     25 C25          5.1680     1.2540    -1.2380 ca         1 9QA      -0.032000
     26 C26          4.4590     0.1200    -0.8340 ca         1 9QA      -0.208600
     27 C27          3.0600    -0.0490    -1.2110 c          1 9QA       0.573600
     28 O28          2.4340     0.7380    -1.8960 o          1 9QA      -0.532000
     29 CL1          8.7570     0.6420     0.3490 cl         1 9QA      -0.188000
     30 O30          0.5650    -1.7260     1.3690 oh         1 9QA      -0.668000
     31 H011       -10.3160    -1.2300    -1.0400 ha         1 9QA       0.112000
     32 H021        -9.6960    -0.9570     1.3420 ha         1 9QA       0.112000
     33 H031        -7.6450     0.2640     1.9540 ha         1 9QA       0.111500
     34 H051        -6.8190     0.9580    -2.1840 ha         1 9QA       0.111500
     35 H061        -8.8670    -0.2640    -2.8000 ha         1 9QA       0.112000
     36 H072        -5.5760     2.1550    -0.4550 hc         1 9QA       0.064200
     37 H071        -5.9520     1.9410     1.2450 hc         1 9QA       0.064200
     38 H081        -4.9190    -0.3380     1.1880 hc         1 9QA       0.060200
     39 H082        -4.5420    -0.1330    -0.5040 hc         1 9QA       0.060200
     40 H122        -2.0620    -1.6210     1.8530 h1         1 9QA       0.060200
     41 H121        -3.2630    -1.5330     0.5830 h1         1 9QA       0.060200
     42 H131        -1.2390    -2.7130    -0.1860 hc         1 9QA       0.062950
     43 H132        -1.5530    -1.2680    -1.1380 hc         1 9QA       0.062950
     44 H151         1.0370     0.8250     0.6810 hc         1 9QA       0.062950
     45 H152        -0.1580     0.8910    -0.6020 hc         1 9QA       0.062950
     46 H161        -1.0580     1.9020     1.4380 h1         1 9QA       0.060200
     47 H162        -0.7170     0.4590     2.3750 h1         1 9QA       0.060200
     48 H172         0.9890    -2.5760    -1.1430 h1         1 9QA       0.075200
     49 H171         0.7840    -1.0070    -1.9030 h1         1 9QA       0.075200
     50 H191         2.6640    -3.0090     0.2890 h5         1 9QA       0.060800
     51 H221         6.9140    -1.4560     0.9060 ha         1 9QA       0.150000
     52 H241         7.0370     2.2940    -1.1910 ha         1 9QA       0.137000
     53 H251         4.6780     2.0110    -1.8360 ha         1 9QA       0.141000
     54 H301         1.1560    -1.1420     1.8560 ho         1 9QA       0.453000
@<TRIPOS>BOND
     1     1     2 ar  
     2     1     6 ar  
     3     1    31 1   
     4     2     3 ar  
     5     2    32 1   
     6     3     4 ar  
     7     3    33 1   
     8     4     5 ar  
     9     4     7 1   
    10     5     6 ar  
    11     5    34 1   
    12     6    35 1   
    13     7     8 1   
    14     7    36 1   
    15     7    37 1   
    16     8     9 1   
    17     8    38 1   
    18     8    39 1   
    19     9    10 2   
    20     9    11 1   
    21    11    12 1   
    22    11    16 1   
    23    12    13 1   
    24    12    40 1   
    25    12    41 1   
    26    13    14 1   
    27    13    42 1   
    28    13    43 1   
    29    14    15 1   
    30    14    17 1   
    31    14    30 1   
    32    15    16 1   
    33    15    44 1   
    34    15    45 1   
    35    16    46 1   
    36    16    47 1   
    37    17    18 1   
    38    17    48 1   
    39    17    49 1   
    40    18    19 1   
    41    18    27 1   
    42    19    20 2   
    43    19    50 1   
    44    20    21 1   
    45    21    22 ar  
    46    21    26 ar  
    47    22    23 ar  
    48    22    51 1   
    49    23    24 ar  
    50    23    29 1   
    51    24    25 ar  
    52    24    52 1   
    53    25    26 ar  
    54    25    53 1   
    55    26    27 1   
    56    27    28 2   
    57    30    54 1   
@<TRIPOS>SUBSTRUCTURE
     1 9QA         1 TEMP              0 ****  ****    0 ROOT
