@<TRIPOS>MOLECULE
9QD
   84    88     1     0     0
SMALL
abcg2


@<TRIPOS>ATOM
      1 N1           5.2730     0.3050     1.0930 n          1 9QD      -0.413800
      2 C4           3.9060     0.7130     1.3660 c6         1 9QD       0.100500
      3 C5           6.2330     1.2250     0.8420 c          1 9QD       0.605100
      4 C6           7.6320     0.7070     0.5520 c3         1 9QD      -0.150400
      5 C7           8.7110     1.7940     0.5920 c3         1 9QD      -0.002400
      6 C8           8.9500     2.3030     2.0140 c3         1 9QD      -0.085100
      7 C10         10.7050     0.2290     0.5850 ca         1 9QD      -0.107500
      8 C13         11.6520     1.3160    -1.7800 ca         1 9QD      -0.110000
      9 C15          5.4080    -1.1270     0.8970 c6         1 9QD       0.100500
     10 C17          0.3320    -0.1560    -1.5610 cc         1 9QD       0.497800
     11 C20         -4.0340    -1.1910    -0.2510 ca         1 9QD       0.019000
     12 C21         -6.0710     0.2390    -0.3110 c          1 9QD       0.607100
     13 C22         -7.4830     0.2380     0.2300 c3         1 9QD      -0.162400
     14 C24        -10.5200     2.2120    -0.7300 c6         1 9QD       0.164800
     15 C28        -10.4980     0.0140     0.1620 c6         1 9QD       0.164800
     16 N            0.8430    -1.3690    -1.2020 n          1 9QD      -0.345300
     17 C            0.0140    -2.3940    -0.7550 c          1 9QD       0.575600
     18 O            0.4420    -3.5100    -0.5280 o          1 9QD      -0.522000
     19 C1           2.2800    -1.5920    -1.3150 c3         1 9QD       0.065000
     20 C11         11.8740    -0.2560     0.0160 ca         1 9QD      -0.110000
     21 C12         12.3540     0.2860    -1.1700 ca         1 9QD      -0.111000
     22 C14         10.4810     1.7970    -1.2070 ca         1 9QD      -0.107500
     23 C16          4.5190    -1.5950    -0.2500 c6         1 9QD      -0.114900
     24 C18         -1.7800    -0.7030    -0.9480 ca         1 9QD       0.206400
     25 C19         -3.1110    -0.3040    -0.7840 ca         1 9QD      -0.135000
     26 C2           3.0560    -1.1990    -0.0460 c6         1 9QD       0.173000
     27 C23         -8.4480     1.0170    -0.6530 c3         1 9QD       0.178800
     28 C25        -11.8140     2.5030     0.0060 c6         1 9QD       0.163800
     29 C27        -11.7930     0.3020     0.8970 c6         1 9QD       0.163800
     30 C29         -3.6210    -2.4940     0.1000 ca         1 9QD      -0.192000
     31 C3           2.9800     0.3070     0.2270 c6         1 9QD      -0.114900
     32 C30         -2.3190    -2.8860    -0.0730 ca         1 9QD      -0.010000
     33 C31         -1.3750    -1.9950    -0.5950 ca         1 9QD      -0.237600
     34 C9           9.9890     1.2640    -0.0180 ca         1 9QD      -0.082300
     35 N2          -0.8900     0.2100    -1.4680 nd         1 9QD      -0.616100
     36 N4          -9.7280     1.2330    -0.0090 n3         1 9QD      -0.725600
     37 N5         -12.5820     1.2870     0.1870 n3         1 9QD      -0.717600
     38 O1           2.5890    -1.9250     1.0720 oh         1 9QD      -0.645000
     39 O2           5.9930     2.4260     0.8480 o          1 9QD      -0.607100
     40 O3          -5.6010     1.1780    -0.9240 o          1 9QD      -0.565100
     41 H1          -5.8840    -1.6150     0.4670 hn         1 9QD       0.152000
     42 H2           3.5850     0.2410     2.2990 h1         1 9QD       0.063450
     43 H3           3.8680     1.7880     1.5180 h1         1 9QD       0.063450
     44 H4           7.8940    -0.0850     1.2580 hc         1 9QD       0.060200
     45 H5           7.6210     0.2350    -0.4360 hc         1 9QD       0.060200
     46 H6           8.3760     2.6330    -0.0220 hc         1 9QD       0.072700
     47 H7           9.2830     1.4980     2.6720 hc         1 9QD       0.039700
     48 H8           9.7150     3.0790     2.0260 hc         1 9QD       0.039700
     49 H9           8.0410     2.7250     2.4390 hc         1 9QD       0.039700
     50 H10         10.3550    -0.2090     1.5130 ha         1 9QD       0.111000
     51 H11         12.0140     1.7480    -2.7040 ha         1 9QD       0.111500
     52 H12          6.4390    -1.3940     0.6830 h1         1 9QD       0.063450
     53 H13          5.1320    -1.6390     1.8220 h1         1 9QD       0.063450
     54 H14          1.0570     0.5400    -1.9700 h5         1 9QD       0.046800
     55 H15         -7.8250    -0.7860     0.3900 hc         1 9QD       0.067200
     56 H16         -7.4470     0.7080     1.2190 hc         1 9QD       0.067200
     57 H18         -9.9470     3.1380    -0.8230 h1         1 9QD       0.038200
     58 H19        -14.4300     2.2540     0.2680 h1         1 9QD       0.031033
     59 H20        -14.4170     0.6150     0.9180 h1         1 9QD       0.031033
     60 H21        -13.7290     1.9420     1.8640 h1         1 9QD       0.031033
     61 H22         -9.9270    -0.7100     0.7440 h1         1 9QD       0.038200
     62 H23        -10.7280    -0.4570    -0.8090 h1         1 9QD       0.038200
     63 H24          2.4450    -2.6450    -1.5380 h1         1 9QD       0.074200
     64 H25          2.6460    -1.0190    -2.1680 h1         1 9QD       0.074200
     65 H26         12.4140    -1.0590     0.5020 ha         1 9QD       0.111500
     66 H27         13.2660    -0.0910    -1.6130 ha         1 9QD       0.112000
     67 H28          9.9390     2.6000    -1.6930 ha         1 9QD       0.111000
     68 H29          4.8830    -1.1600    -1.1850 hc         1 9QD       0.057950
     69 H30          4.6000    -2.6810    -0.3500 hc         1 9QD       0.057950
     70 H31         -3.3820     0.6970    -1.0760 ha         1 9QD       0.168000
     71 H32         -8.0140     1.9950    -0.8660 h1         1 9QD       0.049200
     72 H33         -8.5570     0.5050    -1.6240 h1         1 9QD       0.049200
     73 H34        -11.5770     2.9830     0.9720 h1         1 9QD       0.037950
     74 H35        -12.4040     3.2170    -0.5740 h1         1 9QD       0.037950
     75 H36        -12.3680    -0.6240     0.9830 h1         1 9QD       0.037950
     76 H37        -11.5580     0.6330     1.9250 h1         1 9QD       0.037950
     77 H38         -4.3420    -3.1890     0.5120 ha         1 9QD       0.115000
     78 H39          1.9580     0.6050     0.4850 hc         1 9QD       0.057950
     79 H40          3.2540     0.8610    -0.6750 hc         1 9QD       0.057950
     80 H41         -2.0210    -3.8880     0.2030 ha         1 9QD       0.137000
     81 H44          1.7990    -1.5020     1.4240 ho         1 9QD       0.449000
     82 N3          -5.3700    -0.8920    -0.0130 ns         1 9QD      -0.150000
     83 H17        -10.7540     1.8720    -1.7540 h1         1 9QD       0.038200
     84 C26        -13.8420     1.5390     0.8450 c3         1 9QD       0.153100
@<TRIPOS>BOND
     1     1     2 1   
     2     1     3 1   
     3     1     9 1   
     4     2    31 1   
     5     2    42 1   
     6     2    43 1   
     7     3     4 1   
     8     3    39 2   
     9     4     5 1   
    10     4    44 1   
    11     4    45 1   
    12     5     6 1   
    13     5    34 1   
    14     5    46 1   
    15     6    47 1   
    16     6    48 1   
    17     6    49 1   
    18     7    20 ar  
    19     7    34 ar  
    20     7    50 1   
    21     8    21 ar  
    22     8    22 ar  
    23     8    51 1   
    24     9    23 1   
    25     9    52 1   
    26     9    53 1   
    27    10    16 1   
    28    10    35 2   
    29    10    54 1   
    30    11    25 ar  
    31    11    30 ar  
    32    11    82 1   
    33    12    13 1   
    34    12    40 2   
    35    12    82 1   
    36    13    27 1   
    37    13    55 1   
    38    13    56 1   
    39    14    28 1   
    40    14    36 1   
    41    14    57 1   
    42    14    83 1   
    43    15    29 1   
    44    15    36 1   
    45    15    61 1   
    46    15    62 1   
    47    16    17 1   
    48    16    19 1   
    49    17    18 2   
    50    17    33 1   
    51    19    26 1   
    52    19    63 1   
    53    19    64 1   
    54    20    21 ar  
    55    20    65 1   
    56    21    66 1   
    57    22    34 ar  
    58    22    67 1   
    59    23    26 1   
    60    23    68 1   
    61    23    69 1   
    62    24    25 ar  
    63    24    33 ar  
    64    24    35 1   
    65    25    70 1   
    66    26    31 1   
    67    26    38 1   
    68    27    36 1   
    69    27    71 1   
    70    27    72 1   
    71    28    37 1   
    72    28    73 1   
    73    28    74 1   
    74    29    37 1   
    75    29    75 1   
    76    29    76 1   
    77    30    32 ar  
    78    30    77 1   
    79    31    78 1   
    80    31    79 1   
    81    32    33 ar  
    82    32    80 1   
    83    37    84 1   
    84    38    81 1   
    85    41    82 1   
    86    58    84 1   
    87    59    84 1   
    88    60    84 1   
@<TRIPOS>SUBSTRUCTURE
     1 9QD         1 TEMP              0 ****  ****    0 ROOT
