@<TRIPOS>MOLECULE
9QD
   84    88     1     0     0
SMALL
No Charge or Current Charge


@<TRIPOS>ATOM
      1 N1           5.5990    -0.0790     1.2800 n          1 9QD      -0.413800
      2 C4           4.2700     0.2490     1.8600 c6         1 9QD       0.100500
      3 C5           6.6070     0.9020     1.1110 c          1 9QD       0.605100
      4 C6           7.9780     0.4680     0.5480 c3         1 9QD      -0.150400
      5 C7           9.1270     1.5100     0.6170 c3         1 9QD      -0.002400
      6 C8           9.6070     1.7600     2.0670 c3         1 9QD      -0.085100
      7 C10         10.9900    -0.1170    -0.0420 ca         1 9QD      -0.107500
      8 C13         11.7690     1.5300    -2.1790 ca         1 9QD      -0.110000
      9 C15          5.6220    -1.4250     0.6430 c6         1 9QD       0.100500
     10 C17          0.2680     0.5180    -1.0040 cc         1 9QD       0.497800
     11 C20         -4.1820    -0.5090     0.3370 ca         1 9QD       0.019000
     12 C21         -6.2000     1.0670     0.5690 c          1 9QD       0.607100
     13 C22         -7.6860     0.9790     0.9190 c3         1 9QD      -0.162400
     14 C24        -10.7710     1.6900    -1.2930 c6         1 9QD       0.164800
     15 C28        -10.5970    -0.0000     0.4710 c6         1 9QD       0.164800
     16 N            0.7230    -0.7830    -0.8310 n          1 9QD      -0.345300
     17 C           -0.1390    -1.7820    -0.3980 c          1 9QD       0.575600
     18 O            0.2430    -2.9300    -0.2060 o          1 9QD      -0.522000
     19 C1           2.1290    -1.1370    -1.1690 c3         1 9QD       0.065000
     20 C11         12.0620    -0.4960    -0.8690 ca         1 9QD      -0.110000
     21 C12         12.4520     0.3270    -1.9380 ca         1 9QD      -0.111000
     22 C14         10.6970     1.9100    -1.3520 ca         1 9QD      -0.107500
     23 C16          4.5610    -1.5110    -0.4810 c6         1 9QD      -0.114900
     24 C18         -1.8760    -0.0120    -0.3480 ca         1 9QD       0.206400
     25 C19         -3.1990     0.4020    -0.1060 ca         1 9QD      -0.135000
     26 C2           3.1340    -1.1620     0.0310 c6         1 9QD       0.173000
     27 C23         -8.5450     1.1850    -0.3430 c3         1 9QD       0.178800
     28 C25        -12.3040     1.8190    -1.0200 c6         1 9QD       0.163800
     29 C27        -12.1320     0.1270     0.7390 c6         1 9QD       0.163800
     30 C29         -3.8190    -1.8520     0.5310 ca         1 9QD      -0.192000
     31 C3           3.1710     0.2070     0.7710 c6         1 9QD      -0.114900
     32 C30         -2.5040    -2.2770     0.2940 ca         1 9QD      -0.010000
     33 C31         -1.5330    -1.3560    -0.1450 ca         1 9QD      -0.237600
     34 C9          10.2980     1.0900    -0.2760 ca         1 9QD      -0.082300
     35 N2          -0.9710     0.9620    -0.7860 nd         1 9QD      -0.616100
     36 N4         -10.0030     1.2620    -0.0810 n3         1 9QD      -0.725600
     37 N5         -12.8900     0.5580    -0.4750 n3         1 9QD      -0.717600
     38 O1           2.7110    -2.1800     0.9480 oh         1 9QD      -0.645000
     39 O2           6.3940     2.0670     1.4230 o          1 9QD      -0.607100
     40 O3          -5.6660     2.1410     0.3230 o          1 9QD      -0.565100
     41 H1          -6.1210    -0.9380     0.8400 hn         1 9QD       0.152000
     42 H2           4.0350    -0.4800     2.6480 h1         1 9QD       0.063450
     43 H3           4.2790     1.2390     2.3360 h1         1 9QD       0.063450
     44 H4           8.2650    -0.4780     1.0200 hc         1 9QD       0.060200
     45 H5           7.8050     0.1540    -0.4880 hc         1 9QD       0.060200
     46 H6           8.7300     2.4620     0.2410 hc         1 9QD       0.072700
     47 H7           9.9720     0.8350     2.5280 hc         1 9QD       0.039700
     48 H8          10.4220     2.4930     2.0780 hc         1 9QD       0.039700
     49 H9           8.7950     2.1530     2.6900 hc         1 9QD       0.039700
     50 H10         10.7000    -0.7650     0.7820 ha         1 9QD       0.111000
     51 H11         12.0690     2.1690    -3.0060 ha         1 9QD       0.111500
     52 H12          6.6060    -1.6700     0.2250 h1         1 9QD       0.063450
     53 H13          5.4070    -2.1840     1.4090 h1         1 9QD       0.063450
     54 H14          1.0270     1.2090    -1.3510 h5         1 9QD       0.046800
     55 H15         -7.9080    -0.0020     1.3530 hc         1 9QD       0.067200
     56 H16         -7.9280     1.7730     1.6350 hc         1 9QD       0.067200
     57 H18        -10.3990     2.6590    -1.6550 h1         1 9QD       0.038200
     58 H19        -14.8720     0.9280    -1.1610 h1         1 9QD       0.031033
     59 H20        -14.7480    -0.3010     0.1160 h1         1 9QD       0.031033
     60 H21        -14.5660     1.4230     0.5220 h1         1 9QD       0.031033
     61 H22        -10.1140    -0.2770     1.4180 h1         1 9QD       0.038200
     62 H23        -10.4320    -0.8320    -0.2300 h1         1 9QD       0.038200
     63 H24          2.1480    -2.1150    -1.6690 h1         1 9QD       0.074200
     64 H25          2.5020    -0.4140    -1.9070 h1         1 9QD       0.074200
     65 H26         12.5900    -1.4290    -0.6800 ha         1 9QD       0.111500
     66 H27         13.2810     0.0330    -2.5770 ha         1 9QD       0.112000
     67 H28         10.1770     2.8440    -1.5520 ha         1 9QD       0.111000
     68 H29          4.8440    -0.8210    -1.2880 hc         1 9QD       0.057950
     69 H30          4.5710    -2.5180    -0.9190 hc         1 9QD       0.057950
     70 H31         -3.4390     1.4450    -0.2760 ha         1 9QD       0.168000
     71 H32         -8.2180     2.1200    -0.8200 h1         1 9QD       0.049200
     72 H33         -8.3320     0.3750    -1.0550 h1         1 9QD       0.049200
     73 H34        -12.4630     2.6470    -0.3120 h1         1 9QD       0.037950
     74 H35        -12.8050     2.0980    -1.9580 h1         1 9QD       0.037950
     75 H36        -12.5070    -0.8430     1.0970 h1         1 9QD       0.037950
     76 H37        -12.2840     0.8500     1.5540 h1         1 9QD       0.037950
     77 H38         -4.5590    -2.5740     0.8700 ha         1 9QD       0.115000
     78 H39          2.1980     0.4190     1.2340 hc         1 9QD       0.057950
     79 H40          3.3550     1.0150     0.0490 hc         1 9QD       0.057950
     80 H41         -2.2440    -3.3230     0.4530 ha         1 9QD       0.137000
     81 H44          1.8750    -2.5580     0.5830 ho         1 9QD       0.449000
     82 N3          -5.5340    -0.1520     0.5950 ns         1 9QD      -0.150000
     83 H17        -10.6220     0.9650    -2.1080 h1         1 9QD       0.038200
     84 C26        -14.3450     0.6590    -0.2350 c3         1 9QD       0.153100
@<TRIPOS>BOND
     1     1     2 1   
     2     1     3 1   
     3     1     9 1   
     4     2    31 1   
     5     2    42 1   
     6     2    43 1   
     7     3     4 1   
     8     3    39 2   
     9     4     5 1   
    10     4    44 1   
    11     4    45 1   
    12     5     6 1   
    13     5    34 1   
    14     5    46 1   
    15     6    47 1   
    16     6    48 1   
    17     6    49 1   
    18     7    20 ar  
    19     7    34 ar  
    20     7    50 1   
    21     8    21 ar  
    22     8    22 ar  
    23     8    51 1   
    24     9    23 1   
    25     9    52 1   
    26     9    53 1   
    27    10    16 1   
    28    10    35 2   
    29    10    54 1   
    30    11    25 ar  
    31    11    30 ar  
    32    11    82 1   
    33    12    13 1   
    34    12    40 2   
    35    12    82 1   
    36    13    27 1   
    37    13    55 1   
    38    13    56 1   
    39    14    28 1   
    40    14    36 1   
    41    14    57 1   
    42    14    83 1   
    43    15    29 1   
    44    15    36 1   
    45    15    61 1   
    46    15    62 1   
    47    16    17 1   
    48    16    19 1   
    49    17    18 2   
    50    17    33 1   
    51    19    26 1   
    52    19    63 1   
    53    19    64 1   
    54    20    21 ar  
    55    20    65 1   
    56    21    66 1   
    57    22    34 ar  
    58    22    67 1   
    59    23    26 1   
    60    23    68 1   
    61    23    69 1   
    62    24    25 ar  
    63    24    33 ar  
    64    24    35 1   
    65    25    70 1   
    66    26    31 1   
    67    26    38 1   
    68    27    36 1   
    69    27    71 1   
    70    27    72 1   
    71    28    37 1   
    72    28    73 1   
    73    28    74 1   
    74    29    37 1   
    75    29    75 1   
    76    29    76 1   
    77    30    32 ar  
    78    30    77 1   
    79    31    78 1   
    80    31    79 1   
    81    32    33 ar  
    82    32    80 1   
    83    37    84 1   
    84    38    81 1   
    85    41    82 1   
    86    58    84 1   
    87    59    84 1   
    88    60    84 1   
@<TRIPOS>SUBSTRUCTURE
     1 9QD         1 TEMP              0 ****  ****    0 ROOT
