@<TRIPOS>MOLECULE
9QG
   35    35     1     0     0
SMALL
abcg2


@<TRIPOS>ATOM
      1 O1          -2.2260    -2.4600    -0.4460 os         1 9QG      -0.446000
      2 O5          -2.4560    -0.2260    -0.2060 os         1 9QG      -0.471000
      3 C6          -2.9840     2.0690     0.0870 c3         1 9QG       0.164600
      4 O6          -4.1920     1.7930     0.7550 oh         1 9QG      -0.713000
      5 C1          -1.6750    -1.3390     0.1380 c6         1 9QG       0.349300
      6 C2          -0.2420    -1.1790    -0.3710 c6         1 9QG       0.137300
      7 C3           0.3380     0.1170     0.1890 c6         1 9QG       0.187300
      8 C4          -0.5840     1.2970    -0.1140 c6         1 9QG       0.128300
      9 C5          -1.9930     0.9680     0.3880 c6         1 9QG       0.145300
     10 O2           0.5680    -2.2390     0.0680 oh         1 9QG      -0.696000
     11 O3           1.6170     0.3420    -0.3350 os         1 9QG      -0.392000
     12 O4          -0.5610     1.5350    -1.5020 oh         1 9QG      -0.676000
     13 CAP          4.0200     0.1390    -0.1440 c          1 9QG       0.732000
     14 OAQ          4.0210     0.2170    -1.3830 o          1 9QG      -0.717500
     15 CAM          2.6790     0.3030     0.6000 c3         1 9QG       0.019300
     16 CAN          2.7040     1.5560     1.4700 c3         1 9QG      -0.100100
     17 CAO         -3.4020    -2.9340     0.1800 c3         1 9QG       0.152900
     18 H2          -2.5450     3.0190     0.4210 h1         1 9QG       0.025700
     19 H3          -4.8380     2.4510     0.4870 ho         1 9QG       0.493000
     20 H4          -1.6530    -1.4460     1.2420 h2         1 9QG       0.018700
     21 H5          -0.2690    -1.1230    -1.4690 h1         1 9QG       0.081700
     22 H6           0.3680     0.0130     1.2840 h1         1 9QG       0.033700
     23 H7          -0.2190     2.1700     0.4450 h1         1 9QG       0.040700
     24 H8          -1.9360     0.8480     1.4830 h1         1 9QG       0.042700
     25 H9           0.2770    -3.0440    -0.3720 ho         1 9QG       0.502000
     26 H10         -0.7910     2.4540    -1.6650 ho         1 9QG       0.483000
     27 H12          2.5600    -0.5690     1.2580 h1         1 9QG       0.028700
     28 H13          1.7900     1.6570     2.0600 hc         1 9QG       0.018033
     29 H14          3.5410     1.5160     2.1650 hc         1 9QG       0.018033
     30 H15          2.8080     2.4550     0.8590 hc         1 9QG       0.018033
     31 H16         -3.6730    -3.8710    -0.3030 h1         1 9QG       0.028033
     32 H17         -3.2380    -3.1250     1.2460 h1         1 9QG       0.028033
     33 H18         -4.2360    -2.2360     0.0780 h1         1 9QG       0.028033
     34 OAR          5.0050    -0.0500     0.6000 o          1 9QG      -0.717500
     35 H1          -3.1320     2.1450    -0.9970 h1         1 9QG       0.025700
@<TRIPOS>BOND
     1     1     5 1   
     2     1    17 1   
     3     2     5 1   
     4     2     9 1   
     5     3     4 1   
     6     3     9 1   
     7     3    18 1   
     8     3    35 1   
     9     4    19 1   
    10     5     6 1   
    11     5    20 1   
    12     6     7 1   
    13     6    10 1   
    14     6    21 1   
    15     7     8 1   
    16     7    11 1   
    17     7    22 1   
    18     8     9 1   
    19     8    12 1   
    20     8    23 1   
    21     9    24 1   
    22    10    25 1   
    23    11    15 1   
    24    12    26 1   
    25    13    14 1   
    26    13    15 1   
    27    13    34 1   
    28    15    16 1   
    29    15    27 1   
    30    16    28 1   
    31    16    29 1   
    32    16    30 1   
    33    17    31 1   
    34    17    32 1   
    35    17    33 1   
@<TRIPOS>SUBSTRUCTURE
     1 9QG         1 TEMP              0 ****  ****    0 ROOT
