@<TRIPOS>MOLECULE
9QG
   35    35     1     0     0
SMALL
No Charge or Current Charge


@<TRIPOS>ATOM
      1 O1          -2.0910    -2.5780    -0.2050 os         1 9QG      -0.446000
      2 O5          -2.5200    -0.2700    -0.1900 os         1 9QG      -0.471000
      3 C6          -3.3080     2.0550    -0.0700 c3         1 9QG       0.164600
      4 O6          -4.6180     1.6910     0.4070 oh         1 9QG      -0.713000
      5 C1          -1.6380    -1.3020     0.2840 c6         1 9QG       0.349300
      6 C2          -0.1780    -1.0240    -0.2030 c6         1 9QG       0.137300
      7 C3           0.2800     0.3950     0.3010 c6         1 9QG       0.187300
      8 C4          -0.7650     1.4790    -0.1150 c6         1 9QG       0.128300
      9 C5          -2.1930     1.0370     0.3460 c6         1 9QG       0.145300
     10 O2           0.7120    -2.0980     0.1970 oh         1 9QG      -0.696000
     11 O3           1.5820     0.7870    -0.2260 os         1 9QG      -0.392000
     12 O4          -0.6880     1.7190    -1.5380 oh         1 9QG      -0.676000
     13 CAP          4.0640     0.4530    -0.4960 c          1 9QG       0.732000
     14 OAQ          3.9600     1.0050    -1.5860 o          1 9QG      -0.717500
     15 CAM          2.7990     0.3200     0.4280 c3         1 9QG       0.019300
     16 CAN          2.9740     1.1220     1.7440 c3         1 9QG      -0.100100
     17 CAO         -3.3620    -3.0310     0.2900 c3         1 9QG       0.152900
     18 H2          -3.0300     3.0430     0.3230 h1         1 9QG       0.025700
     19 H3          -5.2540     2.3360     0.0190 ho         1 9QG       0.493000
     20 H4          -1.6530    -1.3170     1.3840 h2         1 9QG       0.018700
     21 H5          -0.2170    -0.9820    -1.3010 h1         1 9QG       0.081700
     22 H6           0.3220     0.3790     1.3980 h1         1 9QG       0.033700
     23 H7          -0.5120     2.4060     0.4210 h1         1 9QG       0.040700
     24 H8          -2.2010     0.9740     1.4440 h1         1 9QG       0.042700
     25 H9           0.2350    -2.9350    -0.0140 ho         1 9QG       0.502000
     26 H10          0.2750     1.7230    -1.7490 ho         1 9QG       0.483000
     27 H12          2.7220    -0.7420     0.6820 h1         1 9QG       0.028700
     28 H13          2.1560     0.9300     2.4470 hc         1 9QG       0.018033
     29 H14          3.9070     0.8370     2.2450 hc         1 9QG       0.018033
     30 H15          3.0140     2.1980     1.5390 hc         1 9QG       0.018033
     31 H16         -3.5980    -4.0220    -0.1180 h1         1 9QG       0.028033
     32 H17         -3.3500    -3.1050     1.3850 h1         1 9QG       0.028033
     33 H18         -4.1660    -2.3430    -0.0030 h1         1 9QG       0.028033
     34 OAR          5.1130    -0.0470    -0.1080 o          1 9QG      -0.717500
     35 H1          -3.3180     2.1320    -1.1650 h1         1 9QG       0.025700
@<TRIPOS>BOND
     1     1     5 1   
     2     1    17 1   
     3     2     5 1   
     4     2     9 1   
     5     3     4 1   
     6     3     9 1   
     7     3    18 1   
     8     3    35 1   
     9     4    19 1   
    10     5     6 1   
    11     5    20 1   
    12     6     7 1   
    13     6    10 1   
    14     6    21 1   
    15     7     8 1   
    16     7    11 1   
    17     7    22 1   
    18     8     9 1   
    19     8    12 1   
    20     8    23 1   
    21     9    24 1   
    22    10    25 1   
    23    11    15 1   
    24    12    26 1   
    25    13    14 1   
    26    13    15 1   
    27    13    34 1   
    28    15    16 1   
    29    15    27 1   
    30    16    28 1   
    31    16    29 1   
    32    16    30 1   
    33    17    31 1   
    34    17    32 1   
    35    17    33 1   
@<TRIPOS>SUBSTRUCTURE
     1 9QG         1 TEMP              0 ****  ****    0 ROOT
