@<TRIPOS>MOLECULE
9QI
   48    50     1     0     0
SMALL
No Charge or Current Charge


@<TRIPOS>ATOM
      1 C           11.0370    10.1430    20.4920 c3         1 9QI      -0.050800
      2 C1          10.5000    11.5830    20.4650 ca         1 9QI      -0.015300
      3 C2          10.3150    12.2630    19.2350 ca         1 9QI       0.123100
      4 C3           9.8250    11.9760    17.0140 cc         1 9QI      -0.042100
      5 C4          10.4740    12.6190    15.9620 cd         1 9QI       0.101400
      6 C5           8.3680    12.7960    14.9280 cc         1 9QI       0.540800
      7 C7           5.9100    10.5880    15.2850 cc         1 9QI      -0.241400
      8 C8           5.7150     9.4570    16.0690 cd         1 9QI      -0.069000
      9 C9           5.4130     8.2000    15.4380 cd         1 9QI       0.047500
     10 C10          5.3200     8.1350    14.0650 cc         1 9QI      -0.062400
     11 N            9.6820    13.0390    14.8790 nd         1 9QI      -0.607300
     12 O           10.6570    11.6130    18.0540 os         1 9QI      -0.208200
     13 C12          8.3770    11.7040    17.0690 c          1 9QI       0.538200
     14 C11          5.8120    10.5260    13.8030 c          1 9QI       0.554200
     15 N1           7.6930    12.1600    15.9510 n          1 9QI      -0.305300
     16 C16          9.5170    14.2470    20.4380 ca         1 9QI      -0.153300
     17 N2           5.5190     9.2810    13.3060 ns         1 9QI      -0.347100
     18 C14         12.8200    11.6950    15.4100 c3         1 9QI       0.142300
     19 C15          9.8430    13.5980    19.2340 ca         1 9QI      -0.101000
     20 C13         11.9820    12.9160    15.8780 c3         1 9QI       0.197200
     21 O1           5.9750    11.4770    13.0550 o          1 9QI      -0.566000
     22 C20          9.0010    15.6820    20.4270 c3         1 9QI       0.230600
     23 N3          10.4460    11.0760    23.9920 n1         1 9QI      -0.448000
     24 C17          9.6780    13.5630    21.6540 ca         1 9QI      -0.065000
     25 C18         10.1690    12.2430    21.6760 ca         1 9QI      -0.001000
     26 C19         10.3240    11.5940    22.9530 cg         1 9QI       0.325000
     27 F6           9.9060    16.5270    19.8840 f          1 9QI      -0.119000
     28 F5           7.8700    15.7930    19.6930 f          1 9QI      -0.119000
     29 F2          12.2390    13.9300    15.0140 f          1 9QI      -0.085000
     30 F4          12.3440    11.2160    14.2360 f          1 9QI      -0.097500
     31 F3          12.7420    10.6800    16.3020 f          1 9QI      -0.097500
     32 F1          12.4860    13.3550    17.0570 f          1 9QI      -0.085000
     33 F            5.2280     7.1170    16.2120 f          1 9QI      -0.153500
     34 H1          11.9600    10.0800    21.0800 hc         1 9QI       0.059033
     35 H2          10.3050     9.4620    20.9410 hc         1 9QI       0.059033
     36 H3          11.2690     9.7470    19.4970 hc         1 9QI       0.059033
     37 H4           7.7380    13.1170    14.1080 h5         1 9QI       0.071800
     38 H5           5.7820    12.7410    15.2440 h1         1 9QI       0.076200
     39 H6           5.7810    12.0450    16.8560 h1         1 9QI       0.076200
     40 H7           5.7890     9.5100    17.1520 ha         1 9QI       0.216000
     41 H8           5.0970     7.2440    13.4860 h4         1 9QI       0.224000
     42 H9           5.4500     9.2340    12.2950 hn         1 9QI       0.338500
     43 H10         13.8700    11.9800    15.2840 h2         1 9QI       0.088700
     44 H11          9.7380    14.1500    18.3030 ha         1 9QI       0.138000
     45 H12          8.7830    16.0210    21.4460 h2         1 9QI       0.065700
     46 H13          9.4270    14.0610    22.5890 ha         1 9QI       0.129000
     47 C6           6.2320    11.9500    15.8590 c3         1 9QI       0.156200
     48 O2           7.8200    11.1280    17.9970 o          1 9QI      -0.516000
@<TRIPOS>BOND
     1     1     2 1   
     2     1    34 1   
     3     1    35 1   
     4     1    36 1   
     5     2     3 ar  
     6     2    25 ar  
     7     3    12 1   
     8     3    19 ar  
     9     4     5 2   
    10     4    12 1   
    11     4    13 1   
    12     5    11 1   
    13     5    20 1   
    14     6    11 2   
    15     6    15 1   
    16     6    37 1   
    17     7     8 2   
    18     7    14 1   
    19     7    47 1   
    20     8     9 1   
    21     8    40 1   
    22     9    10 2   
    23     9    33 1   
    24    10    17 1   
    25    10    41 1   
    26    13    15 1   
    27    13    48 2   
    28    14    17 1   
    29    14    21 2   
    30    15    47 1   
    31    16    19 ar  
    32    16    22 1   
    33    16    24 ar  
    34    17    42 1   
    35    18    20 1   
    36    18    30 1   
    37    18    31 1   
    38    18    43 1   
    39    19    44 1   
    40    20    29 1   
    41    20    32 1   
    42    22    27 1   
    43    22    28 1   
    44    22    45 1   
    45    23    26 3   
    46    24    25 ar  
    47    24    46 1   
    48    25    26 1   
    49    38    47 1   
    50    39    47 1   
@<TRIPOS>SUBSTRUCTURE
     1 9QI         1 TEMP              0 ****  ****    0 ROOT
