@<TRIPOS>MOLECULE
9QI
   48    50     1     0     0
SMALL
abcg2


@<TRIPOS>ATOM
      1 C           10.8520    10.0640    20.1500 c3         1 9QI      -0.050800
      2 C1          10.3840    11.4720    20.3380 ca         1 9QI      -0.015300
      3 C2          10.1380    12.2830    19.2260 ca         1 9QI       0.123100
      4 C3           9.7390    12.1850    16.9260 cc         1 9QI      -0.042100
      5 C4          10.3660    12.7900    15.8890 cd         1 9QI       0.101400
      6 C5           8.4360    12.9730    14.7230 cc         1 9QI       0.540800
      7 C7           6.0370    10.6470    15.2450 cc         1 9QI      -0.241400
      8 C8           5.2620     9.8940    16.0720 cd         1 9QI      -0.069000
      9 C9           5.0200     8.5410    15.7740 cd         1 9QI       0.047500
     10 C10          5.5740     7.9770    14.6790 cc         1 9QI      -0.062400
     11 N            9.7040    13.1910    14.7770 nd         1 9QI      -0.607300
     12 O           10.3830    11.7050    18.0160 os         1 9QI      -0.208200
     13 C12          8.3060    11.9480    16.8770 c          1 9QI       0.538200
     14 C11          6.6310    10.0740    14.0570 c          1 9QI       0.554200
     15 N1           7.7170    12.3760    15.6980 n          1 9QI      -0.305300
     16 C16          9.5000    14.1300    20.6150 ca         1 9QI      -0.153300
     17 N2           6.3510     8.7390    13.8730 ns         1 9QI      -0.347100
     18 C14         12.6360    11.8560    15.2320 c3         1 9QI       0.142300
     19 C15          9.7140    13.5920    19.3480 ca         1 9QI      -0.101000
     20 C13         11.8610    13.0240    15.8510 c3         1 9QI       0.197200
     21 O1           7.3310    10.6910    13.2580 o          1 9QI      -0.566000
     22 C20          9.0510    15.5480    20.7610 c3         1 9QI       0.230600
     23 N3          10.5760    10.6790    23.7400 n1         1 9QI      -0.448000
     24 C17          9.7230    13.3630    21.7380 ca         1 9QI      -0.065000
     25 C18         10.1680    12.0470    21.5900 ca         1 9QI      -0.001000
     26 C19         10.3950    11.2800    22.7740 cg         1 9QI       0.325000
     27 F6           9.9960    16.3920    20.2610 f          1 9QI      -0.119000
     28 F5           7.9250    15.7670    20.0280 f          1 9QI      -0.119000
     29 F2          12.1300    14.1260    15.1210 f          1 9QI      -0.085000
     30 F4          12.2210    11.6870    13.9580 f          1 9QI      -0.097500
     31 F3          12.3370    10.7300    15.9170 f          1 9QI      -0.097500
     32 F1          12.3560    13.2380    17.0900 f          1 9QI      -0.085000
     33 F            4.2420     7.8120    16.5860 f          1 9QI      -0.153500
     34 H1          11.8200    10.0400    19.6480 hc         1 9QI       0.059033
     35 H2          10.9550     9.5370    21.0950 hc         1 9QI       0.059033
     36 H3          10.1520     9.5050    19.5280 hc         1 9QI       0.059033
     37 H4           7.8800    13.2940    13.8530 h5         1 9QI       0.071800
     38 H5           5.9640    12.7050    14.6540 h1         1 9QI       0.076200
     39 H6           5.7440    12.4430    16.3760 h1         1 9QI       0.076200
     40 H7           4.8210    10.3330    16.9600 ha         1 9QI       0.216000
     41 H8           5.4340     6.9430    14.3980 h4         1 9QI       0.224000
     42 H9           6.7540     8.3020    13.0540 hn         1 9QI       0.338500
     43 H10         13.7160    12.0220    15.2500 h2         1 9QI       0.088700
     44 H11          9.5510    14.1990    18.4660 ha         1 9QI       0.138000
     45 H12          8.8510    15.8250    21.7980 h2         1 9QI       0.065700
     46 H13          9.5580    13.7690    22.7270 ha         1 9QI       0.129000
     47 C6           6.2920    12.1010    15.5000 c3         1 9QI       0.156200
     48 O2           7.6730    11.4210    17.7700 o          1 9QI      -0.516000
@<TRIPOS>BOND
     1     1     2 1   
     2     1    34 1   
     3     1    35 1   
     4     1    36 1   
     5     2     3 ar  
     6     2    25 ar  
     7     3    12 1   
     8     3    19 ar  
     9     4     5 2   
    10     4    12 1   
    11     4    13 1   
    12     5    11 1   
    13     5    20 1   
    14     6    11 2   
    15     6    15 1   
    16     6    37 1   
    17     7     8 2   
    18     7    14 1   
    19     7    47 1   
    20     8     9 1   
    21     8    40 1   
    22     9    10 2   
    23     9    33 1   
    24    10    17 1   
    25    10    41 1   
    26    13    15 1   
    27    13    48 2   
    28    14    17 1   
    29    14    21 2   
    30    15    47 1   
    31    16    19 ar  
    32    16    22 1   
    33    16    24 ar  
    34    17    42 1   
    35    18    20 1   
    36    18    30 1   
    37    18    31 1   
    38    18    43 1   
    39    19    44 1   
    40    20    29 1   
    41    20    32 1   
    42    22    27 1   
    43    22    28 1   
    44    22    45 1   
    45    23    26 3   
    46    24    25 ar  
    47    24    46 1   
    48    25    26 1   
    49    38    47 1   
    50    39    47 1   
@<TRIPOS>SUBSTRUCTURE
     1 9QI         1 TEMP              0 ****  ****    0 ROOT
