@<TRIPOS>MOLECULE
9QK
   29    31     1     0     0
SMALL
abcg2


@<TRIPOS>ATOM
      1 C8          -3.9240     1.7080     0.4160 ca         1 9QK      -0.100000
      2 N           -0.1220    -1.1550     0.0940 nb         1 9QK      -0.706000
      3 O            2.2820     3.0380    -1.0830 o          1 9QK      -0.705000
      4 C1           1.7100     0.9640    -0.1390 ca         1 9QK      -0.072600
      5 C10          1.2060    -1.4020     0.0820 ca         1 9QK       0.258000
      6 C11          1.6190    -2.7520     0.1670 ca         1 9QK      -0.107000
      7 C12          2.9480    -3.0740     0.1590 ca         1 9QK      -0.115000
      8 C13          3.9200    -2.0570     0.0690 ca         1 9QK      -0.156000
      9 C14          3.5490    -0.7410    -0.0070 ca         1 9QK      -0.043000
     10 C15          2.1820    -0.3720    -0.0050 ca         1 9QK      -0.052000
     11 C2           0.3560     1.1670    -0.1640 ca         1 9QK      -0.160000
     12 C3          -0.5380     0.0820    -0.0120 cp         1 9QK       0.394500
     13 C4          -2.0020     0.3020     0.0130 cp         1 9QK      -0.092500
     14 C5          -2.8590    -0.7440    -0.3330 ca         1 9QK      -0.121000
     15 C6          -4.2200    -0.5320    -0.3070 ca         1 9QK       0.149000
     16 C7          -4.7810     0.6760     0.0620 ca         1 9QK      -0.164000
     17 C9          -2.5490     1.5280     0.3910 ca         1 9QK      -0.110000
     18 F           -5.0350    -1.5420    -0.6570 f          1 9QK      -0.195000
     19 O1           3.6050     2.2100     0.5130 o          1 9QK      -0.705000
     20 H1          -4.3350     2.6610     0.7210 ha         1 9QK       0.107000
     21 H3           0.8560    -3.5170     0.2310 ha         1 9QK       0.109000
     22 H4           3.2560    -4.1090     0.2200 ha         1 9QK       0.092000
     23 H5           4.9700    -2.3190     0.0640 ha         1 9QK       0.097000
     24 H6           4.3040     0.0280    -0.0640 ha         1 9QK       0.153000
     25 H7          -0.0280     2.1670    -0.3120 ha         1 9QK       0.134000
     26 H8          -2.4610    -1.7060    -0.6270 ha         1 9QK       0.149000
     27 H9          -5.8550     0.8070     0.0750 ha         1 9QK       0.117000
     28 H10         -1.9080     2.3480     0.6890 ha         1 9QK       0.130000
     29 C            2.6270     2.1810    -0.2530 c          1 9QK       0.714600
@<TRIPOS>BOND
     1     1    16 ar  
     2     1    17 ar  
     3     1    20 1   
     4     2     5 ar  
     5     2    12 ar  
     6     3    29 1   
     7     4    10 ar  
     8     4    11 ar  
     9     4    29 1   
    10     5     6 ar  
    11     5    10 ar  
    12     6     7 ar  
    13     6    21 1   
    14     7     8 ar  
    15     7    22 1   
    16     8     9 ar  
    17     8    23 1   
    18     9    10 ar  
    19     9    24 1   
    20    11    12 ar  
    21    11    25 1   
    22    12    13 1   
    23    13    14 ar  
    24    13    17 ar  
    25    14    15 ar  
    26    14    26 1   
    27    15    16 ar  
    28    15    18 1   
    29    16    27 1   
    30    17    28 1   
    31    19    29 1   
@<TRIPOS>SUBSTRUCTURE
     1 9QK         1 TEMP              0 ****  ****    0 ROOT
