@<TRIPOS>MOLECULE
9QK
   29    31     1     0     0
SMALL
No Charge or Current Charge


@<TRIPOS>ATOM
      1 C8          -4.0130     1.7410     0.4150 ca         1 9QK      -0.100000
      2 N           -0.0970    -1.1630     0.1000 nb         1 9QK      -0.706000
      3 O            2.5650     2.8780    -1.1980 o          1 9QK      -0.705000
      4 C1           1.7600     0.9520    -0.1250 ca         1 9QK      -0.072600
      5 C10          1.2300    -1.4230     0.0860 ca         1 9QK       0.258000
      6 C11          1.6610    -2.7600     0.1800 ca         1 9QK      -0.107000
      7 C12          3.0270    -3.0860     0.1590 ca         1 9QK      -0.115000
      8 C13          3.9830    -2.0690     0.0370 ca         1 9QK      -0.156000
      9 C14          3.5760    -0.7280    -0.0580 ca         1 9QK      -0.043000
     10 C15          2.2020    -0.3920    -0.0270 ca         1 9QK      -0.052000
     11 C2           0.3700     1.1840    -0.1170 ca         1 9QK      -0.160000
     12 C3          -0.5420     0.1100     0.0050 cp         1 9QK       0.394500
     13 C4          -2.0380     0.3140     0.0220 cp         1 9QK      -0.092500
     14 C5          -2.9300    -0.7370    -0.3350 ca         1 9QK      -0.121000
     15 C6          -4.3200    -0.5480    -0.3210 ca         1 9QK       0.149000
     16 C7          -4.8660     0.6880     0.0510 ca         1 9QK      -0.164000
     17 C9          -2.6190     1.5560     0.4020 ca         1 9QK      -0.110000
     18 F           -5.1390    -1.5640    -0.6700 f          1 9QK      -0.195000
     19 O1           3.5120     2.3170     0.6550 o          1 9QK      -0.705000
     20 H1          -4.4310     2.7010     0.7120 ha         1 9QK       0.107000
     21 H3           0.9250    -3.5550     0.2690 ha         1 9QK       0.109000
     22 H4           3.3400    -4.1250     0.2320 ha         1 9QK       0.092000
     23 H5           5.0410    -2.3180     0.0140 ha         1 9QK       0.097000
     24 H6           4.3410     0.0370    -0.1600 ha         1 9QK       0.153000
     25 H7           0.0040     2.2010    -0.2150 ha         1 9QK       0.134000
     26 H8          -2.5420    -1.7070    -0.6340 ha         1 9QK       0.149000
     27 H9          -5.9440     0.8260     0.0600 ha         1 9QK       0.117000
     28 H10         -1.9890     2.3880     0.7080 ha         1 9QK       0.130000
     29 C            2.7040     2.1270    -0.2430 c          1 9QK       0.714600
@<TRIPOS>BOND
     1     1    16 ar  
     2     1    17 ar  
     3     1    20 1   
     4     2     5 ar  
     5     2    12 ar  
     6     3    29 1   
     7     4    10 ar  
     8     4    11 ar  
     9     4    29 1   
    10     5     6 ar  
    11     5    10 ar  
    12     6     7 ar  
    13     6    21 1   
    14     7     8 ar  
    15     7    22 1   
    16     8     9 ar  
    17     8    23 1   
    18     9    10 ar  
    19     9    24 1   
    20    11    12 ar  
    21    11    25 1   
    22    12    13 1   
    23    13    14 ar  
    24    13    17 ar  
    25    14    15 ar  
    26    14    26 1   
    27    15    16 ar  
    28    15    18 1   
    29    16    27 1   
    30    17    28 1   
    31    19    29 1   
@<TRIPOS>SUBSTRUCTURE
     1 9QK         1 TEMP              0 ****  ****    0 ROOT
