@<TRIPOS>MOLECULE
9QL
   52    55     1     0     0
SMALL
abcg2


@<TRIPOS>ATOM
      1 C10          4.3150    -4.4520    82.8200 c          1 9QL       0.581200
      2 N12          4.7340    -4.7790    84.9960 na         1 9QL      -0.539200
      3 C13          3.4570    -4.3930    84.9390 cc         1 9QL       0.241800
      4 C17         -0.9480     0.1870    87.6040 c6         1 9QL       0.195300
      5 C20         -2.9410    -1.9140    87.7410 c6         1 9QL      -0.111400
      6 C21         -2.8730    -0.8530    86.6460 c6         1 9QL       0.195300
      7 C22          2.6770    -4.3280    86.1770 ca         1 9QL      -0.088800
      8 C24          0.6610    -4.7810    87.4110 ca         1 9QL      -0.115500
      9 C26          2.4760    -3.6090    88.4670 ca         1 9QL      -0.115500
     10 C1           1.0150    -2.8230    83.9610 ca         1 9QL      -0.158600
     11 C2           1.5210    -1.8180    84.7800 ca         1 9QL      -0.041000
     12 C3           0.7150    -1.0380    85.5790 ca         1 9QL      -0.162000
     13 C4          -0.6820    -1.2160    85.6160 ca         1 9QL       0.338000
     14 C5          -1.2050    -2.2090    84.7640 ca         1 9QL      -0.156000
     15 C6          -0.3660    -2.9640    83.9740 ca         1 9QL      -0.080200
     16 C9           3.1340    -4.1350    83.6150 cd         1 9QL      -0.379400
     17 C18         -0.9120    -0.8030    88.7650 c6         1 9QL      -0.111400
     18 C19         -2.3020    -1.3820    89.0230 c6         1 9QL      -0.074400
     19 C23          1.3970    -4.8760    86.2410 ca         1 9QL      -0.077000
     20 C25          1.1960    -4.1440    88.5240 ca         1 9QL      -0.092000
     21 C27          3.2180    -3.7030    87.2990 ca         1 9QL      -0.077000
     22 N11          5.2420    -4.8910    83.7380 n          1 9QL      -0.269200
     23 N16         -1.4930    -0.4500    86.4100 nh         1 9QL      -0.776400
     24 N28         -0.9990    -4.0260    83.1960 no         1 9QL       0.691200
     25 O8           1.6190    -3.7160    81.8770 o          1 9QL      -0.486100
     26 O14          4.5440    -4.3400    81.6250 o          1 9QL      -0.518000
     27 O29         -0.5120    -5.1300    83.2510 o          1 9QL      -0.389500
     28 O30         -1.9890    -3.7450    82.5660 o          1 9QL      -0.389500
     29 H1           7.0340    -5.8980    84.0800 h1         1 9QL       0.053367
     30 H2           6.8300    -5.1890    82.4770 h1         1 9QL       0.053367
     31 H3           7.2010    -4.1410    83.8580 h1         1 9QL       0.053367
     32 H5          -1.6000     1.0290    87.8500 h1         1 9QL       0.060700
     33 H6          -3.9810    -2.1940    87.9190 hc         1 9QL       0.050950
     34 H7          -2.4210    -2.8170    87.4070 hc         1 9QL       0.050950
     35 H8          -3.4170     0.0400    86.9650 h1         1 9QL       0.060700
     36 H9          -3.3530    -1.1760    85.7240 h1         1 9QL       0.060700
     37 H10         -0.3330    -5.2060    87.4530 ha         1 9QL       0.120500
     38 H11          2.8960    -3.1110    89.3310 ha         1 9QL       0.120500
     39 H12          2.5870    -1.6310    84.7880 ha         1 9QL       0.127000
     40 H13          1.1940    -0.2810    86.1820 ha         1 9QL       0.121000
     41 H14         -2.2620    -2.4260    84.7440 ha         1 9QL       0.141000
     42 H16         -0.2040    -1.6040    88.5290 hc         1 9QL       0.050950
     43 H17         -0.5350    -0.3030    89.6600 hc         1 9QL       0.050950
     44 H18         -2.9420    -0.5960    89.4380 hc         1 9QL       0.043700
     45 H19         -2.2480    -2.1710    89.7760 hc         1 9QL       0.043700
     46 H20          0.9800    -5.3770    85.3790 ha         1 9QL       0.132500
     47 H21          0.6150    -4.0650    89.4340 ha         1 9QL       0.117000
     48 H22          4.2060    -3.2630    87.2540 ha         1 9QL       0.132500
     49 H23          5.1210    -5.3590    85.7300 hn         1 9QL       0.523000
     50 C15          6.6600    -5.0320    83.5370 c3         1 9QL       0.099300
     51 C7           1.9090    -3.5940    83.0540 c          1 9QL       0.634900
     52 H4           0.0320     0.6150    87.4120 h1         1 9QL       0.060700
@<TRIPOS>BOND
     1     1    16 1   
     2     1    22 1   
     3     1    26 2   
     4     2     3 1   
     5     2    22 1   
     6     2    49 1   
     7     3     7 1   
     8     3    16 2   
     9     4    17 1   
    10     4    23 1   
    11     4    32 1   
    12     4    52 1   
    13     5     6 1   
    14     5    18 1   
    15     5    33 1   
    16     5    34 1   
    17     6    23 1   
    18     6    35 1   
    19     6    36 1   
    20     7    19 ar  
    21     7    21 ar  
    22     8    19 ar  
    23     8    20 ar  
    24     8    37 1   
    25     9    20 ar  
    26     9    21 ar  
    27     9    38 1   
    28    10    11 ar  
    29    10    15 ar  
    30    10    51 1   
    31    11    12 ar  
    32    11    39 1   
    33    12    13 ar  
    34    12    40 1   
    35    13    14 ar  
    36    13    23 1   
    37    14    15 ar  
    38    14    41 1   
    39    15    24 1   
    40    16    51 1   
    41    17    18 1   
    42    17    42 1   
    43    17    43 1   
    44    18    44 1   
    45    18    45 1   
    46    19    46 1   
    47    20    47 1   
    48    21    48 1   
    49    22    50 1   
    50    24    27 1   
    51    24    28 1   
    52    25    51 2   
    53    29    50 1   
    54    30    50 1   
    55    31    50 1   
@<TRIPOS>SUBSTRUCTURE
     1 9QL         1 TEMP              0 ****  ****    0 ROOT
