@<TRIPOS>MOLECULE
9QL
   52    55     1     0     0
SMALL
No Charge or Current Charge


@<TRIPOS>ATOM
      1 C10          4.4580    -4.3780    82.5400 c          1 9QL       0.581200
      2 N12          5.1040    -4.7990    84.7180 na         1 9QL      -0.539200
      3 C13          3.7950    -4.3360    84.7700 cc         1 9QL       0.241800
      4 C17         -0.8860    -0.7430    88.2830 c6         1 9QL       0.195300
      5 C20         -3.7880    -0.9370    87.7440 c6         1 9QL      -0.111400
      6 C21         -2.7540    -0.6950    86.6170 c6         1 9QL       0.195300
      7 C22          2.9780    -4.2500    85.9760 ca         1 9QL      -0.088800
      8 C24          1.0450    -4.9630    87.2880 ca         1 9QL      -0.115500
      9 C26          2.5510    -3.2690    88.1710 ca         1 9QL      -0.115500
     10 C1           1.1680    -2.8800    84.0480 ca         1 9QL      -0.158600
     11 C2           1.5810    -1.7920    84.8430 ca         1 9QL      -0.041000
     12 C3           0.7270    -1.2510    85.8150 ca         1 9QL      -0.162000
     13 C4          -0.5650    -1.7700    85.9970 ca         1 9QL       0.338000
     14 C5          -1.0010    -2.8210    85.1750 ca         1 9QL      -0.156000
     15 C6          -0.1530    -3.3900    84.1950 ca         1 9QL      -0.080200
     16 C9           3.4080    -4.0310    83.4770 cd         1 9QL      -0.379400
     17 C18         -1.8960    -0.9840    89.4320 c6         1 9QL      -0.111400
     18 C19         -3.2830    -0.3860    89.0980 c6         1 9QL      -0.074400
     19 C23          1.8390    -5.0640    86.1320 ca         1 9QL      -0.077000
     20 C25          1.3970    -4.0590    88.3050 ca         1 9QL      -0.092000
     21 C27          3.3440    -3.3710    87.0140 ca         1 9QL      -0.077000
     22 N11          5.4810    -4.9000    83.3290 n          1 9QL      -0.269200
     23 N16         -1.4250    -1.2560    86.9920 nh         1 9QL      -0.776400
     24 N28         -0.6650    -4.5340    83.3660 no         1 9QL       0.691200
     25 O8           1.8510    -3.3070    81.8420 o          1 9QL      -0.486100
     26 O14          4.4960    -4.2300    81.3270 o          1 9QL      -0.518000
     27 O29          0.1070    -5.4710    83.1200 o          1 9QL      -0.389500
     28 O30         -1.8730    -4.5560    83.0960 o          1 9QL      -0.389500
     29 H1           7.4520    -5.6170    83.6210 h1         1 9QL       0.053367
     30 H2           6.8550    -5.7040    81.9390 h1         1 9QL       0.053367
     31 H3           7.3220    -4.1260    82.6410 h1         1 9QL       0.053367
     32 H5          -0.6710     0.3330    88.2040 h1         1 9QL       0.060700
     33 H6          -4.7430    -0.4660    87.4780 hc         1 9QL       0.050950
     34 H7          -3.9840    -2.0150    87.8320 hc         1 9QL       0.050950
     35 H8          -2.6650     0.3860    86.4320 h1         1 9QL       0.060700
     36 H9          -3.1270    -1.1510    85.6890 h1         1 9QL       0.060700
     37 H10          0.1580    -5.5830    87.3940 ha         1 9QL       0.120500
     38 H11          2.8300    -2.5760    88.9620 ha         1 9QL       0.120500
     39 H12          2.5800    -1.3760    84.7180 ha         1 9QL       0.127000
     40 H13          1.0760    -0.4240    86.4240 ha         1 9QL       0.121000
     41 H14         -2.0000    -3.2190    85.3260 ha         1 9QL       0.141000
     42 H16         -1.9920    -2.0630    89.6110 hc         1 9QL       0.050950
     43 H17         -1.5110    -0.5450    90.3620 hc         1 9QL       0.050950
     44 H18         -3.2150     0.7100    89.0520 hc         1 9QL       0.043700
     45 H19         -4.0000    -0.6260    89.8950 hc         1 9QL       0.043700
     46 H20          1.5660    -5.7710    85.3520 ha         1 9QL       0.132500
     47 H21          0.7800    -3.9770    89.1970 ha         1 9QL       0.117000
     48 H22          4.2330    -2.7510    86.9130 ha         1 9QL       0.132500
     49 H23          5.6360    -5.3230    85.4170 hn         1 9QL       0.523000
     50 C15          6.8620    -5.0990    82.8540 c3         1 9QL       0.099300
     51 C7           2.1310    -3.4250    83.0270 c          1 9QL       0.634900
     52 H4           0.0570    -1.2500    88.5360 h1         1 9QL       0.060700
@<TRIPOS>BOND
     1     1    16 1   
     2     1    22 1   
     3     1    26 2   
     4     2     3 1   
     5     2    22 1   
     6     2    49 1   
     7     3     7 1   
     8     3    16 2   
     9     4    17 1   
    10     4    23 1   
    11     4    32 1   
    12     4    52 1   
    13     5     6 1   
    14     5    18 1   
    15     5    33 1   
    16     5    34 1   
    17     6    23 1   
    18     6    35 1   
    19     6    36 1   
    20     7    19 ar  
    21     7    21 ar  
    22     8    19 ar  
    23     8    20 ar  
    24     8    37 1   
    25     9    20 ar  
    26     9    21 ar  
    27     9    38 1   
    28    10    11 ar  
    29    10    15 ar  
    30    10    51 1   
    31    11    12 ar  
    32    11    39 1   
    33    12    13 ar  
    34    12    40 1   
    35    13    14 ar  
    36    13    23 1   
    37    14    15 ar  
    38    14    41 1   
    39    15    24 1   
    40    16    51 1   
    41    17    18 1   
    42    17    42 1   
    43    17    43 1   
    44    18    44 1   
    45    18    45 1   
    46    19    46 1   
    47    20    47 1   
    48    21    48 1   
    49    22    50 1   
    50    24    27 1   
    51    24    28 1   
    52    25    51 2   
    53    29    50 1   
    54    30    50 1   
    55    31    50 1   
@<TRIPOS>SUBSTRUCTURE
     1 9QL         1 TEMP              0 ****  ****    0 ROOT
