@<TRIPOS>MOLECULE
9QM
   55    59     1     0     0
SMALL
bcc


@<TRIPOS>ATOM
      1 N1         109.4820   157.8990   137.5420 nh         1 9QM      -0.714600
      2 N3         109.3100   156.1790   135.9450 n          1 9QM      -0.339500
      3 C4         110.2190   160.2250   137.9760 c6         1 9QM       0.138800
      4 C5         110.0760   157.1670   136.5570 cc         1 9QM       0.734800
      5 C7         109.7870   155.4500   134.8490 c          1 9QM       0.730100
      6 C8         108.1110   155.6870   136.5530 ca         1 9QM      -0.001400
      7 C10        111.1740   155.7080   134.4920 ca         1 9QM      -0.206600
      8 C13        108.1840   155.1050   137.8110 ca         1 9QM      -0.077500
      9 C15        113.8720   156.0760   133.9840 ca         1 9QM      -0.135000
     10 C17        107.0380   154.6380   138.4280 ca         1 9QM      -0.178500
     11 C20        103.4810   154.4080   137.9280 ca         1 9QM       0.077100
     12 C21        102.7880   155.5920   138.1370 ca         1 9QM      -0.108500
     13 C22        102.8990   153.3590   137.2340 ca         1 9QM      -0.108500
     14 C24        101.6060   153.4870   136.7480 ca         1 9QM      -0.161500
     15 C1         108.2020   158.5670   137.3420 c6         1 9QM       0.201300
     16 C11        113.2620   156.7470   135.0110 ca         1 9QM       0.127900
     17 C12        111.7830   155.0170   133.4400 ca         1 9QM      -0.065000
     18 C14        106.8920   155.7650   135.9000 ca         1 9QM      -0.077500
     19 C16        113.1210   155.2080   133.1830 ca         1 9QM      -0.143000
     20 C18        105.7380   155.2880   136.5050 ca         1 9QM      -0.178500
     21 C19        105.8120   154.7330   137.7770 ca         1 9QM       0.140100
     22 C2         110.3260   158.7400   138.3830 c6         1 9QM       0.201300
     23 C23        101.4970   155.7280   137.6510 ca         1 9QM      -0.161500
     24 C25        100.9280   154.6720   136.9640 ca         1 9QM       0.136900
     25 C3         108.3870   159.8300   136.4940 c6         1 9QM       0.138800
     26 C9         111.8940   156.6030   135.2900 ca         1 9QM       0.191400
     27 F1         113.9800   157.5710   135.7830 f          1 9QM      -0.127900
     28 F2          99.6780   154.7990   136.4940 f          1 9QM      -0.138900
     29 N2         109.7450   160.3220   136.6140 n3         1 9QM      -0.714600
     30 N4         111.3220   157.3530   136.2660 nd         1 9QM      -0.673100
     31 O1         109.0850   154.6270   134.2980 o          1 9QM      -0.596500
     32 O2         104.7390   154.2490   138.4540 os         1 9QM      -0.249200
     33 H8         111.2040   160.6910   138.0450 h1         1 9QM       0.038950
     34 H9         109.5680   160.7670   138.6830 h1         1 9QM       0.038950
     35 H10        110.9330   161.9510   136.0730 h1         1 9QM       0.032700
     36 H11        109.5640   161.6340   135.0080 h1         1 9QM       0.032700
     37 H12        109.2960   162.4080   136.5750 h1         1 9QM       0.032700
     38 H14        109.1350   155.0230   138.3210 ha         1 9QM       0.148000
     39 H16        114.9290   156.2240   133.7980 ha         1 9QM       0.149000
     40 H18        107.0930   154.1910   139.4130 ha         1 9QM       0.150000
     41 H20        103.2500   156.4050   138.6830 ha         1 9QM       0.151500
     42 H21        103.4480   152.4390   137.0780 ha         1 9QM       0.151500
     43 H23        101.1360   152.6750   136.2090 ha         1 9QM       0.155000
     44 H3         107.8300   158.8210   138.3360 h1         1 9QM       0.066950
     45 H2         107.4520   157.9230   136.8980 h1         1 9QM       0.066950
     46 H13        111.2000   154.3350   132.8370 ha         1 9QM       0.155000
     47 H15        106.8250   156.2220   134.9220 ha         1 9QM       0.148000
     48 H17        113.6030   154.6840   132.3690 ha         1 9QM       0.140000
     49 H19        104.7980   155.3650   135.9760 ha         1 9QM       0.150000
     50 H4         109.9940   158.6120   139.4160 h1         1 9QM       0.066950
     51 H5         111.3520   158.3930   138.3180 h1         1 9QM       0.066950
     52 H22        100.9420   156.6440   137.8090 ha         1 9QM       0.155000
     53 H7         107.6400   160.5750   136.8160 h1         1 9QM       0.038950
     54 H6         108.1870   159.6150   135.4400 h1         1 9QM       0.038950
     55 C6         109.8870   161.6420   136.0500 c3         1 9QM       0.160100
@<TRIPOS>BOND
     1     1     4 1   
     2     1    15 1   
     3     1    22 1   
     4     2     4 1   
     5     2     5 1   
     6     2     6 1   
     7     3    22 1   
     8     3    29 1   
     9     3    33 1   
    10     3    34 1   
    11     4    30 2   
    12     5     7 1   
    13     5    31 2   
    14     6     8 ar  
    15     6    18 ar  
    16     7    17 ar  
    17     7    26 ar  
    18     8    10 ar  
    19     8    38 1   
    20     9    16 ar  
    21     9    19 ar  
    22     9    39 1   
    23    10    21 ar  
    24    10    40 1   
    25    11    12 ar  
    26    11    13 ar  
    27    11    32 1   
    28    12    23 ar  
    29    12    41 1   
    30    13    14 ar  
    31    13    42 1   
    32    14    24 ar  
    33    14    43 1   
    34    15    25 1   
    35    15    44 1   
    36    15    45 1   
    37    16    26 ar  
    38    16    27 1   
    39    17    19 ar  
    40    17    46 1   
    41    18    20 ar  
    42    18    47 1   
    43    19    48 1   
    44    20    21 ar  
    45    20    49 1   
    46    21    32 1   
    47    22    50 1   
    48    22    51 1   
    49    23    24 ar  
    50    23    52 1   
    51    24    28 1   
    52    25    29 1   
    53    25    53 1   
    54    25    54 1   
    55    26    30 1   
    56    29    55 1   
    57    35    55 1   
    58    36    55 1   
    59    37    55 1   
@<TRIPOS>SUBSTRUCTURE
     1 9QM         1 TEMP              0 ****  ****    0 ROOT
