@<TRIPOS>MOLECULE
9QM
   55    59     1     0     0
SMALL
No Charge or Current Charge


@<TRIPOS>ATOM
      1 N1         109.7740   157.9200   136.6810 nh         1 9QM      -0.714600
      2 N3         109.6900   155.7750   135.6690 n          1 9QM      -0.272500
      3 C4         109.5430   159.7050   138.4550 c6         1 9QM       0.138800
      4 C5         110.4310   156.9250   135.9820 cc         1 9QM       0.734800
      5 C7         110.2360   154.8570   134.7710 c          1 9QM       0.587600
      6 C8         108.4900   155.4210   136.4110 ca         1 9QM      -0.001400
      7 C10        111.5940   155.1570   134.2530 ca         1 9QM      -0.206600
      8 C13        108.4290   155.5640   137.8170 ca         1 9QM      -0.059500
      9 C15        114.1980   155.6940   133.3280 ca         1 9QM      -0.117000
     10 C17        107.2360   155.3090   138.5140 ca         1 9QM      -0.160500
     11 C20        103.6850   155.1240   138.0880 ca         1 9QM       0.077100
     12 C21        103.5290   156.3660   137.4370 ca         1 9QM      -0.090500
     13 C22        102.5610   154.3160   138.3390 ca         1 9QM      -0.090500
     14 C24        101.2840   154.7360   137.9210 ca         1 9QM      -0.143500
     15 C1         108.4550   158.4600   136.1990 c6         1 9QM       0.201300
     16 C11        113.5710   156.5640   134.2350 ca         1 9QM       0.163000
     17 C12        112.2260   154.2810   133.3400 ca         1 9QM      -0.047000
     18 C14        107.3130   155.0580   135.7180 ca         1 9QM      -0.059500
     19 C16        113.5230   154.5510   132.8780 ca         1 9QM      -0.125000
     20 C18        106.1190   154.8060   136.4160 ca         1 9QM      -0.160500
     21 C19        106.0790   154.9380   137.8150 ca         1 9QM       0.140100
     22 C2         110.5220   158.8430   137.6000 c6         1 9QM       0.201300
     23 C23        102.2510   156.7840   137.0200 ca         1 9QM      -0.143500
     24 C25        101.1350   155.9670   137.2620 ca         1 9QM       0.172000
     25 C3         108.4020   160.0190   136.2610 c6         1 9QM       0.138800
     26 C9         112.2580   156.3060   134.7090 ca         1 9QM       0.191400
     27 F1         114.2470   157.6650   134.6460 f          1 9QM      -0.163000
     28 F2          99.9090   156.3700   136.8630 f          1 9QM      -0.174000
     29 N2         108.6330   160.5750   137.6370 n3         1 9QM      -0.714600
     30 N4         111.6670   157.2190   135.5930 nd         1 9QM      -0.673100
     31 O1         109.6590   153.8240   134.4530 o          1 9QM      -0.521000
     32 O2         104.9210   154.6960   138.5180 os         1 9QM      -0.249200
     33 H8         110.1220   160.3240   139.1550 h1         1 9QM       0.038950
     34 H9         108.9480   159.0110   139.0680 h1         1 9QM       0.038950
     35 H10        107.6210   161.3900   139.3260 h1         1 9QM       0.032700
     36 H11        106.7940   161.6440   137.7750 h1         1 9QM       0.032700
     37 H12        106.7750   160.0360   138.5380 h1         1 9QM       0.032700
     38 H14        109.3140   155.8610   138.3750 ha         1 9QM       0.130000
     39 H16        115.2040   155.9110   132.9760 ha         1 9QM       0.131000
     40 H18        107.2050   155.4110   139.5950 ha         1 9QM       0.132000
     41 H20        104.3890   157.0070   137.2590 ha         1 9QM       0.133500
     42 H21        102.6820   153.3650   138.8520 ha         1 9QM       0.133500
     43 H23        100.4140   154.1120   138.1090 ha         1 9QM       0.137000
     44 H3         107.6350   158.0570   136.8110 h1         1 9QM       0.066950
     45 H2         108.2680   158.1460   135.1620 h1         1 9QM       0.066950
     46 H13        111.7160   153.3860   132.9880 ha         1 9QM       0.137000
     47 H15        107.3170   154.9840   134.6330 ha         1 9QM       0.130000
     48 H17        114.0040   153.8730   132.1750 ha         1 9QM       0.122000
     49 H19        105.2260   154.5150   135.8680 ha         1 9QM       0.132000
     50 H4         111.1650   158.2620   138.2770 h1         1 9QM       0.066950
     51 H5         111.1770   159.5120   137.0230 h1         1 9QM       0.066950
     52 H22        102.1240   157.7380   136.5160 ha         1 9QM       0.137000
     53 H7         107.4420   160.3670   135.8540 h1         1 9QM       0.038950
     54 H6         109.1800   160.4030   135.5850 h1         1 9QM       0.038950
     55 C6         107.3890   160.9280   138.3570 c3         1 9QM       0.160100
@<TRIPOS>BOND
     1     1     4 1   
     2     1    15 1   
     3     1    22 1   
     4     2     4 1   
     5     2     5 1   
     6     2     6 1   
     7     3    22 1   
     8     3    29 1   
     9     3    33 1   
    10     3    34 1   
    11     4    30 2   
    12     5     7 1   
    13     5    31 2   
    14     6     8 ar  
    15     6    18 ar  
    16     7    17 ar  
    17     7    26 ar  
    18     8    10 ar  
    19     8    38 1   
    20     9    16 ar  
    21     9    19 ar  
    22     9    39 1   
    23    10    21 ar  
    24    10    40 1   
    25    11    12 ar  
    26    11    13 ar  
    27    11    32 1   
    28    12    23 ar  
    29    12    41 1   
    30    13    14 ar  
    31    13    42 1   
    32    14    24 ar  
    33    14    43 1   
    34    15    25 1   
    35    15    44 1   
    36    15    45 1   
    37    16    26 ar  
    38    16    27 1   
    39    17    19 ar  
    40    17    46 1   
    41    18    20 ar  
    42    18    47 1   
    43    19    48 1   
    44    20    21 ar  
    45    20    49 1   
    46    21    32 1   
    47    22    50 1   
    48    22    51 1   
    49    23    24 ar  
    50    23    52 1   
    51    24    28 1   
    52    25    29 1   
    53    25    53 1   
    54    25    54 1   
    55    26    30 1   
    56    29    55 1   
    57    35    55 1   
    58    36    55 1   
    59    37    55 1   
@<TRIPOS>SUBSTRUCTURE
     1 9QM         1 TEMP              0 ****  ****    0 ROOT
