@<TRIPOS>MOLECULE
9QN
   54    57     1     0     0
SMALL
abcg2


@<TRIPOS>ATOM
      1 CAO          6.2750   -14.1570   -20.5200 ca         1 9QN       0.004000
      2 CAP          6.0580   -14.4170   -21.8660 ca         1 9QN       0.107000
      3 CL1          4.6430   -15.3180   -22.3370 cl         1 9QN      -0.196500
      4 CAQ          6.9390   -13.9830   -22.8440 ca         1 9QN      -0.048000
      5 CAR          8.0700   -13.2760   -22.4480 ca         1 9QN       0.107000
      6 CL2          9.1690   -12.7010   -23.6710 cl         1 9QN      -0.196500
      7 CAS          8.3370   -13.0140   -21.1140 ca         1 9QN       0.004000
      8 CAN          7.4220   -13.4620   -20.1660 ca         1 9QN      -0.270500
      9 SAK          7.7540   -13.1680   -18.4430 sy         1 9QN       1.225600
     10 OAL          6.4800   -13.2490   -17.7670 o          1 9QN      -0.546000
     11 OAM          8.5290   -11.9540   -18.3430 o          1 9QN      -0.546000
     12 N            8.7070   -14.4060   -17.9820 n3         1 9QN      -0.803500
     13 CA          10.0280   -14.1690   -17.4010 c6         1 9QN       0.167500
     14 C           11.2110   -14.8360   -18.1180 c          1 9QN       0.568000
     15 O           12.3290   -14.5100   -17.7070 o          1 9QN      -0.571000
     16 CB          10.0030   -14.4960   -15.8980 c6         1 9QN      -0.080400
     17 CAH          9.4310   -15.8840   -15.6190 c6         1 9QN      -0.075400
     18 CAI          8.0610   -16.0570   -16.2770 c6         1 9QN      -0.092400
     19 CAC          8.1080   -15.7380   -17.7720 c6         1 9QN       0.249500
     20 CAD          8.8760   -16.8110   -18.5820 c3         1 9QN      -0.090700
     21 CAW          7.9120   -17.8390   -19.1570 c3         1 9QN       0.162600
     22 OAX          7.0950   -17.2120   -20.1470 oh         1 9QN      -0.674000
     23 CAE          9.7630   -16.2070   -19.6660 c3         1 9QN       0.134000
     24 NAF         11.0400   -15.6870   -19.1510 n          1 9QN      -0.396800
     25 CAY         12.2240   -16.1320   -19.8800 c3         1 9QN       0.043700
     26 CAZ         12.3490   -15.4680   -21.2330 ca         1 9QN       0.318300
     27 NBA         12.2300   -14.1350   -21.2640 nb         1 9QN      -0.655000
     28 CBB         12.3760   -13.5150   -22.4350 ca         1 9QN       0.341900
     29 CBC         12.6470   -14.1810   -23.6250 ca         1 9QN      -0.161000
     30 CBD         12.7610   -15.5630   -23.5920 ca         1 9QN      -0.071000
     31 CBE         12.6060   -16.2180   -22.3760 ca         1 9QN      -0.159000
     32 H1           5.5740   -14.4920   -19.7720 ha         1 9QN       0.156000
     33 H2           6.7520   -14.1840   -23.8880 ha         1 9QN       0.145000
     34 H3           9.2250   -12.4760   -20.8190 ha         1 9QN       0.156000
     35 H4          10.2420   -13.1100   -17.5150 h1         1 9QN       0.112700
     36 H5          11.0120   -14.3980   -15.5000 hc         1 9QN       0.065200
     37 H6           9.3790   -13.7390   -15.4160 hc         1 9QN       0.065200
     38 H7           9.3440   -16.0360   -14.5420 hc         1 9QN       0.046200
     39 H8          10.1240   -16.6490   -15.9820 hc         1 9QN       0.046200
     40 H9           7.3390   -15.3880   -15.8020 hc         1 9QN       0.056200
     41 H10          7.6960   -17.0780   -16.1450 hc         1 9QN       0.056200
     42 H11          7.0940   -15.6910   -18.1610 h1         1 9QN       0.070700
     43 H12          9.5330   -17.3630   -17.9070 hc         1 9QN       0.067700
     44 H13          7.2930   -18.2490   -18.3530 h1         1 9QN       0.029200
     45 H14          8.4850   -18.6610   -19.5990 h1         1 9QN       0.029200
     46 H15          6.3990   -17.8270   -20.4080 ho         1 9QN       0.450000
     47 H16          9.2390   -15.4440   -20.2370 h1         1 9QN       0.055700
     48 H17         10.0300   -16.9950   -20.3670 h1         1 9QN       0.055700
     49 H18         12.1800   -17.2150   -20.0000 h1         1 9QN       0.073700
     50 H19         13.0960   -15.8890   -19.2770 h1         1 9QN       0.073700
     51 H20         12.2670   -12.4360   -22.4250 h4         1 9QN       0.023100
     52 H21         12.7520   -13.6270   -24.5480 ha         1 9QN       0.124000
     53 H22         12.9590   -16.1240   -24.4960 ha         1 9QN       0.119000
     54 H23         12.6800   -17.2960   -22.3110 ha         1 9QN       0.119000
@<TRIPOS>BOND
     1     1     2 ar  
     2     1     8 ar  
     3     1    32 1   
     4     2     3 1   
     5     2     4 ar  
     6     4     5 ar  
     7     4    33 1   
     8     5     6 1   
     9     5     7 ar  
    10     7     8 ar  
    11     7    34 1   
    12     8     9 1   
    13     9    10 2   
    14     9    11 2   
    15     9    12 1   
    16    12    13 1   
    17    12    19 1   
    18    13    14 1   
    19    13    16 1   
    20    13    35 1   
    21    14    15 2   
    22    14    24 1   
    23    16    17 1   
    24    16    36 1   
    25    16    37 1   
    26    17    18 1   
    27    17    38 1   
    28    17    39 1   
    29    18    19 1   
    30    18    40 1   
    31    18    41 1   
    32    19    20 1   
    33    19    42 1   
    34    20    21 1   
    35    20    23 1   
    36    20    43 1   
    37    21    22 1   
    38    21    44 1   
    39    21    45 1   
    40    22    46 1   
    41    23    24 1   
    42    23    47 1   
    43    23    48 1   
    44    24    25 1   
    45    25    26 1   
    46    25    49 1   
    47    25    50 1   
    48    26    27 ar  
    49    26    31 ar  
    50    27    28 ar  
    51    28    29 ar  
    52    28    51 1   
    53    29    30 ar  
    54    29    52 1   
    55    30    31 ar  
    56    30    53 1   
    57    31    54 1   
@<TRIPOS>SUBSTRUCTURE
     1 9QN         1 TEMP              0 ****  ****    0 ROOT
