@<TRIPOS>MOLECULE
9QN
   54    57     1     0     0
SMALL
No Charge or Current Charge


@<TRIPOS>ATOM
      1 CAO          5.0960   -13.7120   -19.2800 ca         1 9QN       0.004000
      2 CAP          4.2040   -14.0300   -20.3200 ca         1 9QN       0.107000
      3 Cl1          2.5850   -14.6050   -19.9400 cl         1 9QN      -0.196500
      4 CAQ          4.6000   -13.8920   -21.6610 ca         1 9QN      -0.048000
      5 CAR          5.8940   -13.4370   -21.9650 ca         1 9QN       0.107000
      6 Cl2          6.3910   -13.2680   -23.6450 cl         1 9QN      -0.196500
      7 CAS          6.7930   -13.1190   -20.9330 ca         1 9QN       0.004000
      8 CAN          6.3960   -13.2530   -19.5860 ca         1 9QN      -0.270500
      9 SAK          7.5600   -12.8610   -18.2760 sy         1 9QN       1.225600
     10 OAL          6.9200   -12.9970   -16.9650 o          1 9QN      -0.546000
     11 OAM          8.2550   -11.6350   -18.6820 o          1 9QN      -0.546000
     12 N            8.7210   -14.1030   -18.4220 n3         1 9QN      -0.803500
     13 CA           9.9740   -13.9280   -17.5920 c6         1 9QN       0.167500
     14 C           11.3270   -14.3050   -18.2920 c          1 9QN       0.568000
     15 O           12.2700   -13.5190   -18.2750 o          1 9QN      -0.571000
     16 CB           9.8080   -14.6280   -16.2060 c6         1 9QN      -0.080400
     17 CAH          9.2980   -16.0810   -16.2840 c6         1 9QN      -0.075400
     18 CAI          8.0070   -16.1410   -17.1310 c6         1 9QN      -0.092400
     19 CAC          8.2260   -15.5170   -18.5370 c6         1 9QN       0.249500
     20 CAD          9.1140   -16.4590   -19.4320 c3         1 9QN      -0.090700
     21 CAW          8.2990   -17.1820   -20.5330 c3         1 9QN       0.162600
     22 OAX          7.8440   -16.2560   -21.5250 oh         1 9QN      -0.674000
     23 CAE         10.3710   -15.7910   -20.0120 c3         1 9QN       0.134000
     24 NAF         11.4190   -15.5230   -18.9980 n          1 9QN      -0.396800
     25 CAY         12.7600   -16.1270   -19.2610 c3         1 9QN       0.043700
     26 CAZ         13.3620   -15.8930   -20.6520 ca         1 9QN       0.318300
     27 NBA         13.9600   -14.6980   -20.8780 nb         1 9QN      -0.655000
     28 CBB         14.4990   -14.4720   -22.0990 ca         1 9QN       0.341900
     29 CBC         14.4700   -15.4230   -23.1330 ca         1 9QN      -0.161000
     30 CBD         13.8590   -16.6650   -22.9030 ca         1 9QN      -0.071000
     31 CBE         13.2990   -16.9000   -21.6370 ca         1 9QN      -0.159000
     32 H1           4.7720   -13.8270   -18.2480 ha         1 9QN       0.156000
     33 H2           3.9080   -14.1380   -22.4600 ha         1 9QN       0.145000
     34 H3           7.7970   -12.7810   -21.1820 ha         1 9QN       0.156000
     35 H4          10.1250   -12.8580   -17.3830 h1         1 9QN       0.112700
     36 H5          10.7610   -14.5980   -15.6610 hc         1 9QN       0.065200
     37 H6           9.1050   -14.0420   -15.5980 hc         1 9QN       0.065200
     38 H7           9.0970   -16.4590   -15.2720 hc         1 9QN       0.046200
     39 H8          10.0780   -16.7300   -16.7030 hc         1 9QN       0.046200
     40 H9           7.1990   -15.6120   -16.6100 hc         1 9QN       0.056200
     41 H10          7.6670   -17.1820   -17.2270 hc         1 9QN       0.056200
     42 H11          7.2380   -15.5180   -19.0180 h1         1 9QN       0.070700
     43 H12          9.4920   -17.2810   -18.8150 hc         1 9QN       0.067700
     44 H13          7.4450   -17.6960   -20.0700 h1         1 9QN       0.029200
     45 H14          8.9310   -17.9500   -20.9990 h1         1 9QN       0.029200
     46 H15          7.3720   -16.7780   -22.2120 ho         1 9QN       0.450000
     47 H16         10.1010   -14.8560   -20.5200 h1         1 9QN       0.055700
     48 H17         10.7800   -16.4590   -20.7800 h1         1 9QN       0.055700
     49 H18         12.6760   -17.2090   -19.1000 h1         1 9QN       0.073700
     50 H19         13.4730   -15.7640   -18.5090 h1         1 9QN       0.073700
     51 H20         14.9700   -13.5020   -22.2500 h4         1 9QN       0.023100
     52 H21         14.9180   -15.1930   -24.0960 ha         1 9QN       0.124000
     53 H22         13.8220   -17.4240   -23.6820 ha         1 9QN       0.119000
     54 H23         12.8190   -17.8510   -21.4200 ha         1 9QN       0.119000
@<TRIPOS>BOND
     1     1     2 ar  
     2     1     8 ar  
     3     1    32 1   
     4     2     3 1   
     5     2     4 ar  
     6     4     5 ar  
     7     4    33 1   
     8     5     6 1   
     9     5     7 ar  
    10     7     8 ar  
    11     7    34 1   
    12     8     9 1   
    13     9    10 2   
    14     9    11 2   
    15     9    12 1   
    16    12    13 1   
    17    12    19 1   
    18    13    14 1   
    19    13    16 1   
    20    13    35 1   
    21    14    15 2   
    22    14    24 1   
    23    16    17 1   
    24    16    36 1   
    25    16    37 1   
    26    17    18 1   
    27    17    38 1   
    28    17    39 1   
    29    18    19 1   
    30    18    40 1   
    31    18    41 1   
    32    19    20 1   
    33    19    42 1   
    34    20    21 1   
    35    20    23 1   
    36    20    43 1   
    37    21    22 1   
    38    21    44 1   
    39    21    45 1   
    40    22    46 1   
    41    23    24 1   
    42    23    47 1   
    43    23    48 1   
    44    24    25 1   
    45    25    26 1   
    46    25    49 1   
    47    25    50 1   
    48    26    27 ar  
    49    26    31 ar  
    50    27    28 ar  
    51    28    29 ar  
    52    28    51 1   
    53    29    30 ar  
    54    29    52 1   
    55    30    31 ar  
    56    30    53 1   
    57    31    54 1   
@<TRIPOS>SUBSTRUCTURE
     1 9QN         1 TEMP              0 ****  ****    0 ROOT
