@<TRIPOS>MOLECULE
9QO
   59    61     1     0     0
SMALL
No Charge or Current Charge


@<TRIPOS>ATOM
      1 C2          -7.5780    -0.0020    -1.3830 ca         1 9QO       0.412900
      2 C4          -5.7560     1.2020    -0.8200 ca         1 9QO       0.429900
      3 C5          -5.3350     0.1960     0.0750 cp         1 9QO      -0.282000
      4 C6          -6.1790    -0.9430     0.1580 ca         1 9QO       0.210300
      5 C9          -5.8750    -2.1510     1.0410 c3         1 9QO      -0.136700
      6 C10         -4.8140    -3.0850     0.4250 c3         1 9QO      -0.083100
      7 C12         -4.1200     0.5140     2.2680 ca         1 9QO      -0.136000
      8 C14         -1.6890     0.5450     2.3720 ca         1 9QO      -0.201000
      9 C16         -2.8170     0.2440     0.2380 ca         1 9QO      -0.153000
     10 C18          0.8390     0.3560     0.9520 c3         1 9QO       0.166600
     11 C20          3.3510     0.2900     0.4730 c3         1 9QO       0.150600
     12 C11         -4.0790     0.3180     0.8700 cp         1 9QO       0.029000
     13 C13         -2.9360     0.6260     3.0150 ca         1 9QO      -0.075000
     14 C15         -1.6270     0.3530     0.9750 ca         1 9QO       0.141100
     15 N1          -7.3050    -1.0360    -0.5800 nb         1 9QO      -0.288000
     16 C19          1.9330     0.2110    -0.1190 c3         1 9QO      -0.086400
     17 C25          8.2690    -0.0060     0.1360 ca         1 9QO       0.404900
     18 C23          6.3770    -1.1080    -0.5180 ca         1 9QO       0.185300
     19 C27          6.3690     1.2230     0.0760 ca         1 9QO       0.398900
     20 C22          5.6420     0.0860    -0.3460 ca         1 9QO      -0.135900
     21 N3          -6.8690     1.1150    -1.5520 nb         1 9QO      -0.333000
     22 N29          9.5980    -0.0520     0.3800 nv         1 9QO      -1.045900
     23 N24          7.7030    -1.1500    -0.2710 nb         1 9QO      -0.279000
     24 C31          5.5490    -2.4660    -2.5130 c3         1 9QO      -0.083100
     25 N26          7.6840     1.1820     0.3180 nb         1 9QO      -0.323000
     26 N28          5.8040     2.4530     0.2220 nv         1 9QO      -1.060900
     27 O21          4.2830     0.1230    -0.6080 os         1 9QO      -0.343100
     28 O17         -0.4340     0.2640     0.2890 os         1 9QO      -0.349100
     29 N8          -5.0560     2.3490    -0.9990 nv         1 9QO      -1.070900
     30 N7          -8.7060    -0.1020    -2.1210 nv         1 9QO      -1.054900
     31 H1          -5.5340    -1.8260     2.0300 hc         1 9QO       0.059700
     32 H2          -6.7890    -2.7320     1.2210 hc         1 9QO       0.059700
     33 H3          -5.1470    -3.4580    -0.5510 hc         1 9QO       0.037367
     34 H4          -3.8630    -2.5580     0.2870 hc         1 9QO       0.037367
     35 H5          -4.6360    -3.9470     1.0800 hc         1 9QO       0.037367
     36 H6          -5.0810     0.5810     2.7730 ha         1 9QO       0.123000
     37 H7          -0.7870     0.6330     2.9720 ha         1 9QO       0.116000
     38 H8          -2.7640     0.0890    -0.8360 ha         1 9QO       0.128000
     39 H9           0.9460    -0.4430     1.6970 h1         1 9QO       0.035200
     40 H10          0.9450     1.3260     1.4560 h1         1 9QO       0.035200
     41 H11          3.4880     1.2570     0.9730 h1         1 9QO       0.032700
     42 H12          3.4820    -0.5070     1.2180 h1         1 9QO       0.032700
     43 H13         -2.9850     0.7750     4.0920 ha         1 9QO       0.113000
     44 H14          1.8110    -0.7510    -0.6310 hc         1 9QO       0.066200
     45 H15          1.8110     1.0010    -0.8690 hc         1 9QO       0.066200
     46 H16          6.3240    -3.2700    -0.6630 hc         1 9QO       0.057700
     47 H17          4.7460    -2.5270    -0.5050 hc         1 9QO       0.057700
     48 H18         10.1020     0.8270     0.4700 hn         1 9QO       0.485000
     49 H19         10.1270    -0.8540     0.0460 hn         1 9QO       0.485000
     50 H20          4.9110    -1.6450    -2.8610 hc         1 9QO       0.039033
     51 H21          6.5200    -2.3880    -3.0180 hc         1 9QO       0.039033
     52 H22          5.0820    -3.4130    -2.8090 hc         1 9QO       0.039033
     53 H23          4.9020     2.6040    -0.2200 hn         1 9QO       0.489500
     54 H24          6.4210     3.2590     0.2800 hn         1 9QO       0.489500
     55 H25         -4.1100     2.3910    -0.6330 hn         1 9QO       0.492500
     56 H26         -5.2690     2.9260    -1.8070 hn         1 9QO       0.492500
     57 H27         -9.1490    -1.0140    -2.2010 hn         1 9QO       0.487000
     58 H28         -8.8330     0.5400    -2.8990 hn         1 9QO       0.487000
     59 C30          5.7260    -2.4080    -0.9830 c3         1 9QO      -0.129700
@<TRIPOS>BOND
     1     1    15 ar  
     2     1    21 ar  
     3     1    30 1   
     4     2     3 ar  
     5     2    21 ar  
     6     2    29 1   
     7     3     4 ar  
     8     3    12 1   
     9     4     5 1   
    10     4    15 ar  
    11     5     6 1   
    12     5    31 1   
    13     5    32 1   
    14     6    33 1   
    15     6    34 1   
    16     6    35 1   
    17     7    12 ar  
    18     7    13 ar  
    19     7    36 1   
    20     8    13 ar  
    21     8    14 ar  
    22     8    37 1   
    23     9    12 ar  
    24     9    14 ar  
    25     9    38 1   
    26    10    16 1   
    27    10    28 1   
    28    10    39 1   
    29    10    40 1   
    30    11    16 1   
    31    11    27 1   
    32    11    41 1   
    33    11    42 1   
    34    13    43 1   
    35    14    28 1   
    36    16    44 1   
    37    16    45 1   
    38    17    22 1   
    39    17    23 ar  
    40    17    25 ar  
    41    18    20 ar  
    42    18    23 ar  
    43    18    59 1   
    44    19    20 ar  
    45    19    25 ar  
    46    19    26 1   
    47    20    27 1   
    48    22    48 1   
    49    22    49 1   
    50    24    50 1   
    51    24    51 1   
    52    24    52 1   
    53    24    59 1   
    54    26    53 1   
    55    26    54 1   
    56    29    55 1   
    57    29    56 1   
    58    30    57 1   
    59    30    58 1   
    60    46    59 1   
    61    47    59 1   
@<TRIPOS>SUBSTRUCTURE
     1 9QO         1 TEMP              0 ****  ****    0 ROOT
