@<TRIPOS>MOLECULE
9QO
   59    61     1     0     0
SMALL
bcc


@<TRIPOS>ATOM
      1 C2          -7.6060     0.3290    -1.0770 ca         1 9QO       0.938900
      2 C4          -5.7220     1.4170    -0.4350 ca         1 9QO       0.758200
      3 C5          -5.2710     0.2540     0.2320 cp         1 9QO      -0.412600
      4 C6          -6.1110    -0.8460     0.1600 ca         1 9QO       0.538600
      5 C9          -5.7270    -2.1670     0.7600 c3         1 9QO      -0.136700
      6 C10         -4.9430    -3.0210    -0.2370 c3         1 9QO      -0.083100
      7 C12         -3.9240     0.3510     2.3380 ca         1 9QO      -0.154000
      8 C14         -1.5080     0.2620     2.2700 ca         1 9QO      -0.219000
      9 C16         -2.7880     0.1590     0.2300 ca         1 9QO      -0.171000
     10 C18          0.8170     0.0910     0.6900 c3         1 9QO       0.143400
     11 C20          3.2490     0.0340     0.1680 c3         1 9QO       0.127400
     12 C11         -3.9740     0.2460     0.9470 cp         1 9QO       0.029000
     13 C13         -2.6990     0.3510     2.9830 ca         1 9QO      -0.093000
     14 C15         -1.5520     0.1690     0.8820 ca         1 9QO       0.141100
     15 N1          -7.2770    -0.8190    -0.4890 nb         1 9QO      -0.814000
     16 C19          1.8510     0.0300    -0.4160 c3         1 9QO      -0.086400
     17 C25          8.0330     0.3730     0.2020 ca         1 9QO       0.930900
     18 C23          6.2830    -1.0070    -0.2460 ca         1 9QO       0.513600
     19 C27          6.0880     1.3600    -0.4240 ca         1 9QO       0.727200
     20 C22          5.4890     0.0850    -0.5200 ca         1 9QO      -0.266500
     21 N3          -6.8820     1.4460    -1.0850 nb         1 9QO      -0.859000
     22 N29          9.3120     0.5230     0.6320 nv         1 9QO      -0.935500
     23 N24          7.5640    -0.8680     0.1150 nb         1 9QO      -0.805000
     24 C31          6.1340    -2.9640    -1.7850 c3         1 9QO      -0.083100
     25 N26          7.3580     1.4920    -0.0620 nb         1 9QO      -0.849000
     26 N28          5.3780     2.4780    -0.6790 nv         1 9QO      -0.950500
     27 O21          4.1820    -0.0240    -0.9080 os         1 9QO      -0.319900
     28 O17         -0.4660     0.0800     0.0890 os         1 9QO      -0.325900
     29 N8          -5.0080     2.5580    -0.4120 nv         1 9QO      -0.960500
     30 N7          -8.8080     0.3780    -1.6990 nv         1 9QO      -0.944500
     31 H1          -5.1300    -2.0220     1.6600 hc         1 9QO       0.059700
     32 H2          -6.6370    -2.6910     1.0560 hc         1 9QO       0.059700
     33 H3          -5.5180    -3.1930    -1.1470 hc         1 9QO       0.037367
     34 H4          -4.0060    -2.5380    -0.5170 hc         1 9QO       0.037367
     35 H5          -4.7020    -3.9910     0.1970 hc         1 9QO       0.037367
     36 H6          -4.8400     0.4300     2.9090 ha         1 9QO       0.141000
     37 H7          -0.5720     0.2670     2.8110 ha         1 9QO       0.134000
     38 H8          -2.8140     0.0770    -0.8510 ha         1 9QO       0.146000
     39 H9           0.9280    -0.7630     1.3670 h1         1 9QO       0.035200
     40 H10          0.9510     1.0020     1.2850 h1         1 9QO       0.035200
     41 H11          3.4110     0.9370     0.7680 h1         1 9QO       0.032700
     42 H12          3.3890    -0.8260     0.8340 h1         1 9QO       0.032700
     43 H13         -2.6580     0.4250     4.0620 ha         1 9QO       0.131000
     44 H14          1.7050    -0.8750    -1.0100 hc         1 9QO       0.066200
     45 H15          1.7290     0.8890    -1.0810 hc         1 9QO       0.066200
     46 H16          6.2510    -3.0300     0.3650 hc         1 9QO       0.057700
     47 H17          4.7060    -2.4700    -0.2490 hc         1 9QO       0.057700
     48 H18          9.7600     1.4050     0.4520 hn         1 9QO       0.429800
     49 H19          9.9100    -0.2840     0.5890 hn         1 9QO       0.429800
     50 H20          5.6410    -2.3960    -2.5740 hc         1 9QO       0.039033
     51 H21          7.2100    -2.9230    -1.9600 hc         1 9QO       0.039033
     52 H22          5.8200    -4.0040    -1.8750 hc         1 9QO       0.039033
     53 H23          4.5230     2.4070    -1.2030 hn         1 9QO       0.434300
     54 H24          5.8860     3.3410    -0.7810 hn         1 9QO       0.434300
     55 H25         -4.0530     2.5540    -0.0970 hn         1 9QO       0.437300
     56 H26         -5.2800     3.3090    -1.0230 hn         1 9QO       0.437300
     57 H27         -9.2640    -0.4930    -1.9080 hn         1 9QO       0.431800
     58 H28         -8.9800     1.1340    -2.3390 hn         1 9QO       0.431800
     59 C30          5.7840    -2.4120    -0.4030 c3         1 9QO      -0.129700
@<TRIPOS>BOND
     1     1    15 ar  
     2     1    21 ar  
     3     1    30 1   
     4     2     3 ar  
     5     2    21 ar  
     6     2    29 1   
     7     3     4 ar  
     8     3    12 1   
     9     4     5 1   
    10     4    15 ar  
    11     5     6 1   
    12     5    31 1   
    13     5    32 1   
    14     6    33 1   
    15     6    34 1   
    16     6    35 1   
    17     7    12 ar  
    18     7    13 ar  
    19     7    36 1   
    20     8    13 ar  
    21     8    14 ar  
    22     8    37 1   
    23     9    12 ar  
    24     9    14 ar  
    25     9    38 1   
    26    10    16 1   
    27    10    28 1   
    28    10    39 1   
    29    10    40 1   
    30    11    16 1   
    31    11    27 1   
    32    11    41 1   
    33    11    42 1   
    34    13    43 1   
    35    14    28 1   
    36    16    44 1   
    37    16    45 1   
    38    17    22 1   
    39    17    23 ar  
    40    17    25 ar  
    41    18    20 ar  
    42    18    23 ar  
    43    18    59 1   
    44    19    20 ar  
    45    19    25 ar  
    46    19    26 1   
    47    20    27 1   
    48    22    48 1   
    49    22    49 1   
    50    24    50 1   
    51    24    51 1   
    52    24    52 1   
    53    24    59 1   
    54    26    53 1   
    55    26    54 1   
    56    29    55 1   
    57    29    56 1   
    58    30    57 1   
    59    30    58 1   
    60    46    59 1   
    61    47    59 1   
@<TRIPOS>SUBSTRUCTURE
     1 9QO         1 TEMP              0 ****  ****    0 ROOT
