@<TRIPOS>MOLECULE
9QR
   59    61     1     0     0
SMALL
abcg2


@<TRIPOS>ATOM
      1 N1           7.2980     1.7380    -0.6700 nb         1 9QR      -0.322000
      2 C2           7.9350     0.6970    -1.2060 ca         1 9QR       0.405900
      3 N3           7.6100    -0.5850    -1.0620 nb         1 9QR      -0.278000
      4 C4           6.5200    -0.8540    -0.3350 ca         1 9QR       0.185300
      5 C5           5.7760     0.1500     0.2470 ca         1 9QR      -0.135900
      6 C6           6.2200     1.4760     0.0590 ca         1 9QR       0.396900
      7 N7           5.5460     2.5150     0.5950 nv         1 9QR      -1.056900
      8 C12          3.4450    -0.0750     0.2780 c3         1 9QR       0.150600
      9 C21         -2.3220    -0.2100     2.0760 ca         1 9QR      -0.176500
     10 C22         -5.5070    -0.1990     0.0330 cp         1 9QR      -0.269000
     11 C31         -5.1470     2.9910    -0.7850 c3         1 9QR      -0.083100
     12 N8           8.9980     0.9800    -2.0010 nv         1 9QR      -1.047900
     13 C9           6.1880    -2.3030    -0.1280 c3         1 9QR      -0.129700
     14 C10          6.8250    -2.8390     1.1530 c3         1 9QR      -0.083100
     15 O11          4.6680    -0.0910     1.0100 os         1 9QR      -0.343100
     16 C13          2.2970    -0.1300     1.2660 c3         1 9QR      -0.087400
     17 C14          0.9720    -0.1690     0.5320 c3         1 9QR       0.165600
     18 O15         -0.0630    -0.1960     1.5000 os         1 9QR      -0.347100
     19 C16         -1.3430    -0.2070     1.0800 ca         1 9QR       0.144100
     20 C20         -3.6620    -0.2140     1.7340 ca         1 9QR      -0.067500
     21 C17         -1.7330    -0.2150    -0.2560 ca         1 9QR      -0.176500
     22 C18         -3.0840    -0.2150    -0.5790 ca         1 9QR      -0.067500
     23 C19         -4.0720    -0.2060     0.3990 cp         1 9QR      -0.052000
     24 C23         -6.2940     0.9400     0.0630 ca         1 9QR       0.205300
     25 C30         -5.7250     2.2790     0.4380 c3         1 9QR      -0.134700
     26 C27         -6.1550    -1.3810    -0.3940 ca         1 9QR       0.425900
     27 N28         -5.4870    -2.5460    -0.4890 nv         1 9QR      -1.072900
     28 N26         -7.4390    -1.3910    -0.7430 nb         1 9QR      -0.331000
     29 C25         -8.0910    -0.2330    -0.6730 ca         1 9QR       0.407900
     30 N24         -7.5830     0.9350    -0.2860 nb         1 9QR      -0.286000
     31 N29         -9.4090    -0.2570    -0.9900 nv         1 9QR      -1.050900
     32 H1           6.0020     3.4120     0.5940 hn         1 9QR       0.488000
     33 H2           4.9210     2.3450     1.3650 hn         1 9QR       0.488000
     34 H3           3.3780     0.8320    -0.3330 h1         1 9QR       0.032700
     35 H4           3.4050    -0.9300    -0.4060 h1         1 9QR       0.032700
     36 H5          -2.0240    -0.2100     3.1180 ha         1 9QR       0.122500
     37 H6          -4.7940     3.9880    -0.5190 hc         1 9QR       0.036367
     38 H7          -4.3040     2.4380    -1.1990 hc         1 9QR       0.036367
     39 H8          -5.8980     3.0980    -1.5680 hc         1 9QR       0.036367
     40 H9           9.6390     0.2310    -2.2020 hn         1 9QR       0.486000
     41 H10          9.4060     1.8950    -1.9250 hn         1 9QR       0.486000
     42 H11          5.1090    -2.4560    -0.0890 hc         1 9QR       0.057700
     43 H12          6.5600    -2.8640    -0.9860 hc         1 9QR       0.057700
     44 H13          7.9070    -2.6990     1.1410 hc         1 9QR       0.039367
     45 H14          6.4280    -2.3320     2.0320 hc         1 9QR       0.039367
     46 H15          6.6270    -3.9050     1.2630 hc         1 9QR       0.039367
     47 H16          2.3960    -1.0200     1.8940 hc         1 9QR       0.066200
     48 H17          2.3330     0.7460     1.9190 hc         1 9QR       0.066200
     49 H18          0.8690     0.7120    -0.1140 h1         1 9QR       0.035200
     50 H19          0.9200    -1.0560    -0.1100 h1         1 9QR       0.035200
     51 H20         -4.4070    -0.2170     2.5210 ha         1 9QR       0.118500
     52 H21         -1.0090    -0.2170    -1.0590 ha         1 9QR       0.122500
     53 H22         -3.3680    -0.2120    -1.6250 ha         1 9QR       0.118500
     54 H23         -4.9470     2.1660     1.1940 hc         1 9QR       0.059200
     55 H24         -6.5200     2.8840     0.8760 hc         1 9QR       0.059200
     56 H25         -4.5780    -2.6460    -0.0740 hn         1 9QR       0.492500
     57 H26         -6.0120    -3.3900    -0.6440 hn         1 9QR       0.492500
     58 H27         -9.7490    -1.0450    -1.5140 hn         1 9QR       0.485000
     59 H28         -9.8550     0.6230    -1.1850 hn         1 9QR       0.485000
@<TRIPOS>BOND
     1     1     2 ar  
     2     1     6 ar  
     3     2     3 ar  
     4     2    12 1   
     5     3     4 ar  
     6     4     5 ar  
     7     4    13 1   
     8     5     6 ar  
     9     5    15 1   
    10     6     7 1   
    11     7    32 1   
    12     7    33 1   
    13     8    15 1   
    14     8    16 1   
    15     8    34 1   
    16     8    35 1   
    17     9    19 ar  
    18     9    20 ar  
    19     9    36 1   
    20    10    23 1   
    21    10    24 ar  
    22    10    26 ar  
    23    11    25 1   
    24    11    37 1   
    25    11    38 1   
    26    11    39 1   
    27    12    40 1   
    28    12    41 1   
    29    13    14 1   
    30    13    42 1   
    31    13    43 1   
    32    14    44 1   
    33    14    45 1   
    34    14    46 1   
    35    16    17 1   
    36    16    47 1   
    37    16    48 1   
    38    17    18 1   
    39    17    49 1   
    40    17    50 1   
    41    18    19 1   
    42    19    21 ar  
    43    20    23 ar  
    44    20    51 1   
    45    21    22 ar  
    46    21    52 1   
    47    22    23 ar  
    48    22    53 1   
    49    24    25 1   
    50    24    30 ar  
    51    25    54 1   
    52    25    55 1   
    53    26    27 1   
    54    26    28 ar  
    55    27    56 1   
    56    27    57 1   
    57    28    29 ar  
    58    29    30 ar  
    59    29    31 1   
    60    31    58 1   
    61    31    59 1   
@<TRIPOS>SUBSTRUCTURE
     1 9QR         1 TEMP              0 ****  ****    0 ROOT
