@<TRIPOS>MOLECULE
9QR
   59    61     1     0     0
SMALL
No Charge or Current Charge


@<TRIPOS>ATOM
      1 N1           7.6300     1.4360    -1.1530 nb         1 9QR      -0.322000
      2 C2           8.3440     0.3060    -1.1660 ca         1 9QR       0.405900
      3 N3           8.0140    -0.8830    -0.6440 nb         1 9QR      -0.278000
      4 C4           6.8100    -0.9600    -0.0390 ca         1 9QR       0.185300
      5 C5           5.9550     0.1640     0.0240 ca         1 9QR      -0.135900
      6 C6           6.4350     1.3600    -0.5570 ca         1 9QR       0.396900
      7 N7           5.7480     2.5340    -0.5150 nv         1 9QR      -1.056900
      8 C12          3.5180     0.1620    -0.1260 c3         1 9QR       0.150600
      9 C21         -2.3160    -0.4090     1.8070 ca         1 9QR      -0.176500
     10 C22         -5.6420    -0.2640    -0.0730 cp         1 9QR      -0.269000
     11 C31         -5.3830     3.0430     0.2650 c3         1 9QR      -0.083100
     12 N8           9.5520     0.3780    -1.7680 nv         1 9QR      -1.047900
     13 C9           6.4290    -2.3110     0.5580 c3         1 9QR      -0.129700
     14 C10          6.6880    -2.3800     2.0760 c3         1 9QR      -0.083100
     15 O11          4.7240     0.0790     0.6510 os         1 9QR      -0.343100
     16 C13          2.3320    -0.0420     0.8330 c3         1 9QR      -0.087400
     17 C14          0.9750     0.0060     0.1100 c3         1 9QR       0.165600
     18 O15         -0.0510    -0.1960     1.0970 os         1 9QR      -0.347100
     19 C16         -1.3910    -0.2070     0.7710 ca         1 9QR       0.144100
     20 C20         -3.6950    -0.4300     1.5360 ca         1 9QR      -0.067500
     21 C17         -1.8560    -0.0280    -0.5500 ca         1 9QR      -0.176500
     22 C18         -3.2360    -0.0490    -0.8180 ca         1 9QR      -0.067500
     23 C19         -4.1770    -0.2450     0.2200 cp         1 9QR      -0.052000
     24 C23         -6.5220     0.7600     0.3730 ca         1 9QR       0.205300
     25 C30         -6.0590     1.9840     1.1590 c3         1 9QR      -0.134700
     26 C27         -6.2430    -1.2990    -0.8230 ca         1 9QR       0.425900
     27 N28         -5.5330    -2.3470    -1.3060 nv         1 9QR      -1.072900
     28 N26         -7.5490    -1.3420    -1.0990 nb         1 9QR      -0.331000
     29 C25         -8.2690    -0.3260    -0.6220 ca         1 9QR       0.407900
     30 N24         -7.8410     0.7210     0.0900 nb         1 9QR      -0.286000
     31 N29         -9.5920    -0.3590    -0.9000 nv         1 9QR      -1.050900
     32 H1           6.2550     3.3880    -0.7270 hn         1 9QR       0.488000
     33 H2           4.9910     2.6110     0.1580 hn         1 9QR       0.488000
     34 H3           3.4280     1.1370    -0.6210 h1         1 9QR       0.032700
     35 H4           3.5050    -0.6200    -0.8970 h1         1 9QR       0.032700
     36 H5          -1.9620    -0.5510     2.8250 ha         1 9QR       0.122500
     37 H6          -5.0810     3.9120     0.8610 hc         1 9QR       0.036367
     38 H7          -4.4880     2.6330    -0.2180 hc         1 9QR       0.036367
     39 H8          -6.0710     3.3850    -0.5170 hc         1 9QR       0.036367
     40 H9          10.2170    -0.3750    -1.6070 hn         1 9QR       0.486000
     41 H10          9.9380     1.2960    -1.9750 hn         1 9QR       0.486000
     42 H11          5.3690    -2.5190     0.3670 hc         1 9QR       0.057700
     43 H12          6.9880    -3.1170     0.0670 hc         1 9QR       0.057700
     44 H13          7.7490    -2.2140     2.2950 hc         1 9QR       0.039367
     45 H14          6.1020    -1.6180     2.6050 hc         1 9QR       0.039367
     46 H15          6.4050    -3.3640     2.4690 hc         1 9QR       0.039367
     47 H16          2.4390    -1.0110     1.3350 hc         1 9QR       0.066200
     48 H17          2.3560     0.7340     1.6070 hc         1 9QR       0.066200
     49 H18          0.8550     0.9810    -0.3810 h1         1 9QR       0.035200
     50 H19          0.9380    -0.7810    -0.6540 h1         1 9QR       0.035200
     51 H20         -4.3990    -0.5920     2.3490 ha         1 9QR       0.118500
     52 H21         -1.1680     0.1290    -1.3760 ha         1 9QR       0.122500
     53 H22         -3.5870     0.0930    -1.8380 ha         1 9QR       0.118500
     54 H23         -5.3640     1.6900     1.9520 hc         1 9QR       0.059200
     55 H24         -6.9090     2.4530     1.6710 hc         1 9QR       0.059200
     56 H25         -4.5960    -2.4880    -0.9390 hn         1 9QR       0.492500
     57 H26         -6.0390    -3.1740    -1.6090 hn         1 9QR       0.492500
     58 H27         -9.9150    -1.0030    -1.6180 hn         1 9QR       0.485000
     59 H28        -10.1380     0.4870    -0.7610 hn         1 9QR       0.485000
@<TRIPOS>BOND
     1     1     2 ar  
     2     1     6 ar  
     3     2     3 ar  
     4     2    12 1   
     5     3     4 ar  
     6     4     5 ar  
     7     4    13 1   
     8     5     6 ar  
     9     5    15 1   
    10     6     7 1   
    11     7    32 1   
    12     7    33 1   
    13     8    15 1   
    14     8    16 1   
    15     8    34 1   
    16     8    35 1   
    17     9    19 ar  
    18     9    20 ar  
    19     9    36 1   
    20    10    23 1   
    21    10    24 ar  
    22    10    26 ar  
    23    11    25 1   
    24    11    37 1   
    25    11    38 1   
    26    11    39 1   
    27    12    40 1   
    28    12    41 1   
    29    13    14 1   
    30    13    42 1   
    31    13    43 1   
    32    14    44 1   
    33    14    45 1   
    34    14    46 1   
    35    16    17 1   
    36    16    47 1   
    37    16    48 1   
    38    17    18 1   
    39    17    49 1   
    40    17    50 1   
    41    18    19 1   
    42    19    21 ar  
    43    20    23 ar  
    44    20    51 1   
    45    21    22 ar  
    46    21    52 1   
    47    22    23 ar  
    48    22    53 1   
    49    24    25 1   
    50    24    30 ar  
    51    25    54 1   
    52    25    55 1   
    53    26    27 1   
    54    26    28 ar  
    55    27    56 1   
    56    27    57 1   
    57    28    29 ar  
    58    29    30 ar  
    59    29    31 1   
    60    31    58 1   
    61    31    59 1   
@<TRIPOS>SUBSTRUCTURE
     1 9QR         1 TEMP              0 ****  ****    0 ROOT
