@<TRIPOS>MOLECULE
9QT
   29    31     1     0     0
SMALL
abcg2


@<TRIPOS>ATOM
      1 C1          -2.3100     0.9470     0.1410 ca         1 9QT      -0.070600
      2 C2          -0.9530     1.1390     0.1720 ca         1 9QT      -0.159000
      3 C3          -0.0710     0.0480     0.0170 cp         1 9QT       0.390500
      4 C4           1.3970     0.2490    -0.0040 cp         1 9QT      -0.081500
      5 C5           1.9480     1.4820    -0.3490 ca         1 9QT      -0.136000
      6 C6           3.3210     1.6200    -0.3600 ca         1 9QT       0.166000
      7 C7           4.1820     0.5890    -0.0400 ca         1 9QT      -0.162000
      8 C8           3.6100    -0.6280     0.2980 ca         1 9QT       0.131000
      9 C9           2.2400    -0.8150     0.3170 ca         1 9QT      -0.091000
     10 C11         -2.2480    -2.7690    -0.1810 ca         1 9QT      -0.107000
     11 C12         -3.5790    -3.0790    -0.1750 ca         1 9QT      -0.114000
     12 C14         -4.1620    -0.7420     0.0030 ca         1 9QT      -0.042000
     13 N           -0.4950    -1.1850    -0.0980 nb         1 9QT      -0.706000
     14 C           -3.2180     2.1710     0.2520 c          1 9QT       0.714600
     15 O           -4.1930     2.2050    -0.5180 o          1 9QT      -0.703000
     16 C10         -1.8240    -1.4220    -0.0890 ca         1 9QT       0.258000
     17 C13         -4.5430    -2.0540    -0.0800 ca         1 9QT      -0.155000
     18 C15         -2.7910    -0.3850     0.0020 ca         1 9QT      -0.051000
     19 F            3.8450     2.8040    -0.7010 f          1 9QT      -0.184000
     20 O1          -2.8680     3.0270     1.0810 o          1 9QT      -0.703000
     21 CL           4.6490    -1.9490     0.7090 cl         1 9QT      -0.221000
     22 H1          -0.5650     2.1360     0.3250 ha         1 9QT       0.135000
     23 H2           1.3290     2.3230    -0.6290 ha         1 9QT       0.149000
     24 H3           5.2540     0.7320    -0.0570 ha         1 9QT       0.134000
     25 H4           1.8200    -1.7740     0.5840 ha         1 9QT       0.153000
     26 H5          -1.4910    -3.5390    -0.2500 ha         1 9QT       0.110000
     27 H6          -3.8970    -4.1120    -0.2420 ha         1 9QT       0.093000
     28 H7          -4.9110     0.0320     0.0660 ha         1 9QT       0.154000
     29 H8          -5.5950    -2.3080    -0.0750 ha         1 9QT       0.098000
@<TRIPOS>BOND
     1     1     2 ar  
     2     1    14 1   
     3     1    18 ar  
     4     2     3 ar  
     5     2    22 1   
     6     3     4 1   
     7     3    13 ar  
     8     4     5 ar  
     9     4     9 ar  
    10     5     6 ar  
    11     5    23 1   
    12     6     7 ar  
    13     6    19 1   
    14     7     8 ar  
    15     7    24 1   
    16     8     9 ar  
    17     8    21 1   
    18     9    25 1   
    19    10    11 ar  
    20    10    16 ar  
    21    10    26 1   
    22    11    17 ar  
    23    11    27 1   
    24    12    17 ar  
    25    12    18 ar  
    26    12    28 1   
    27    13    16 ar  
    28    14    15 1   
    29    14    20 1   
    30    16    18 ar  
    31    17    29 1   
@<TRIPOS>SUBSTRUCTURE
     1 9QT         1 TEMP              0 ****  ****    0 ROOT
