@<TRIPOS>MOLECULE
9QT
   29    31     1     0     0
SMALL
No Charge or Current Charge


@<TRIPOS>ATOM
      1 C1          -2.3610     0.9330     0.1330 ca         1 9QT      -0.070600
      2 C2          -0.9690     1.1540     0.1300 ca         1 9QT      -0.159000
      3 C3          -0.0670     0.0730     0.0010 cp         1 9QT       0.390500
      4 C4           1.4300     0.2620    -0.0110 cp         1 9QT      -0.081500
      5 C5           2.0260     1.5030    -0.3720 ca         1 9QT      -0.136000
      6 C6           3.4210     1.6660    -0.3800 ca         1 9QT       0.166000
      7 C7           4.2640     0.6040    -0.0330 ca         1 9QT      -0.162000
      8 C8           3.7050    -0.6310     0.3220 ca         1 9QT       0.131000
      9 C9           2.3110    -0.8020     0.3310 ca         1 9QT      -0.091000
     10 C11         -2.2940    -2.7770    -0.2000 ca         1 9QT      -0.107000
     11 C12         -3.6620    -3.0910    -0.1840 ca         1 9QT      -0.114000
     12 C14         -4.1920    -0.7300     0.0500 ca         1 9QT      -0.042000
     13 N           -0.5220    -1.1950    -0.1040 nb         1 9QT      -0.706000
     14 C           -3.2950     2.1160     0.2580 c          1 9QT       0.714600
     15 O           -4.1020     2.3180    -0.6390 o          1 9QT      -0.703000
     16 C10         -1.8520    -1.4440    -0.0950 ca         1 9QT       0.258000
     17 C13         -4.6090    -2.0670    -0.0560 ca         1 9QT      -0.155000
     18 C15         -2.8150    -0.4060     0.0240 ca         1 9QT      -0.051000
     19 F            3.9540     2.8560    -0.7310 f          1 9QT      -0.184000
     20 O1          -3.1490     2.8610     1.2160 o          1 9QT      -0.703000
     21 Cl           4.7570    -1.9720     0.7580 cl         1 9QT      -0.221000
     22 H1          -0.5950     2.1670     0.2360 ha         1 9QT       0.135000
     23 H2           1.4120     2.3490    -0.6680 ha         1 9QT       0.149000
     24 H3           5.3420     0.7370    -0.0410 ha         1 9QT       0.134000
     25 H4           1.9110    -1.7720     0.6160 ha         1 9QT       0.153000
     26 H5          -1.5640    -3.5760    -0.2940 ha         1 9QT       0.110000
     27 H6          -3.9840    -4.1270    -0.2660 ha         1 9QT       0.093000
     28 H7          -4.9500     0.0410     0.1560 ha         1 9QT       0.154000
     29 H8          -5.6700    -2.3070    -0.0370 ha         1 9QT       0.098000
@<TRIPOS>BOND
     1     1     2 ar  
     2     1    14 1   
     3     1    18 ar  
     4     2     3 ar  
     5     2    22 1   
     6     3     4 1   
     7     3    13 ar  
     8     4     5 ar  
     9     4     9 ar  
    10     5     6 ar  
    11     5    23 1   
    12     6     7 ar  
    13     6    19 1   
    14     7     8 ar  
    15     7    24 1   
    16     8     9 ar  
    17     8    21 1   
    18     9    25 1   
    19    10    11 ar  
    20    10    16 ar  
    21    10    26 1   
    22    11    17 ar  
    23    11    27 1   
    24    12    17 ar  
    25    12    18 ar  
    26    12    28 1   
    27    13    16 ar  
    28    14    15 1   
    29    14    20 1   
    30    16    18 ar  
    31    17    29 1   
@<TRIPOS>SUBSTRUCTURE
     1 9QT         1 TEMP              0 ****  ****    0 ROOT
