@<TRIPOS>MOLECULE
9QU
   57    61     1     0     0
SMALL
bcc


@<TRIPOS>ATOM
      1 N1          -7.1110     9.7520     5.3880 n7         1 9QU      -0.790200
      2 C7          -6.2020    10.6550     4.7260 c3         1 9QU       0.083800
      3 C8          -6.6400    12.1100     4.8420 c          1 9QU       0.665100
      4 N2          -6.2930    12.8640     3.7870 ns         1 9QU      -0.578900
      5 C9          -6.5160    14.2980     3.7020 c6         1 9QU       0.122700
      6 C1          -8.9020    10.1740    -0.2580 ca         1 9QU      -0.065000
      7 C5          -8.9520    10.3420     2.3450 cc         1 9QU      -0.173200
      8 C6          -8.4250     9.6420     4.7760 c3         1 9QU       0.213000
      9 N3          -8.6240    15.0160    -1.2250 na         1 9QU      -0.265300
     10 C4          -8.4360     9.4960     3.2870 cd         1 9QU      -0.116300
     11 C3          -7.9380     8.5890     1.3020 ca         1 9QU      -0.045200
     12 C2          -8.6530     9.7850     1.0630 ca         1 9QU      -0.101800
     13 N4          -7.1040    13.4060    -1.1400 nc         1 9QU      -0.576100
     14 O           -7.2130    12.5530     5.8270 o          1 9QU      -0.590100
     15 N           -7.8280     8.4430     2.6550 na         1 9QU      -0.178400
     16 C22         -7.4780     7.7790     0.2650 ca         1 9QU      -0.153000
     17 C23         -7.7420     8.1880    -1.0290 ca         1 9QU      -0.106000
     18 C           -8.4470     9.3740    -1.2890 ca         1 9QU      -0.158000
     19 C14         -7.9580    14.6330     3.3170 c6         1 9QU      -0.092900
     20 C13         -8.2830    14.2110     1.8900 c6         1 9QU      -0.071900
     21 C12         -7.3070    14.8440     0.8850 c6         1 9QU      -0.076000
     22 C11         -5.8660    14.4980     1.2510 c6         1 9QU      -0.071900
     23 C10         -5.5510    14.9070     2.6880 c6         1 9QU      -0.092900
     24 C15         -7.6450    14.4090    -0.5020 cd         1 9QU       0.418800
     25 C17         -7.7580    13.3420    -2.3480 ca         1 9QU       0.069400
     26 C18         -7.5880    12.4670    -3.4190 ca         1 9QU      -0.068000
     27 C19         -8.3930    12.6360    -4.5320 ca         1 9QU      -0.155000
     28 C20         -9.3550    13.6560    -4.5890 ca         1 9QU      -0.112000
     29 C21         -9.5410    14.5350    -3.5340 ca         1 9QU      -0.134000
     30 C16         -8.7280    14.3560    -2.4210 ca         1 9QU      -0.081200
     31 H1          -6.6790     8.8410     5.4620 hn         1 9QU       0.357800
     32 H3          -6.0260    10.4130     3.6690 h1         1 9QU       0.048200
     33 H4          -5.2290    10.5760     5.2210 h1         1 9QU       0.048200
     34 H5          -5.8520    12.4060     3.0060 hn         1 9QU       0.317500
     35 H6          -6.3060    14.7260     4.6860 h1         1 9QU       0.070700
     36 H8          -9.4840    11.2570     2.5530 ha         1 9QU       0.155000
     37 H9          -9.0170    10.5260     5.0210 h1         1 9QU       0.073200
     38 H10         -8.9320     8.7940     5.2440 h1         1 9QU       0.073200
     39 H11         -9.1690    15.8100    -0.9280 hn         1 9QU       0.304700
     40 H13         -7.3640     7.6800     3.1220 hn         1 9QU       0.291700
     41 H14         -6.9330     6.8650     0.4650 ha         1 9QU       0.128000
     42 H15         -7.3990     7.5820    -1.8570 ha         1 9QU       0.126000
     43 H16         -8.6340     9.6660    -2.3140 ha         1 9QU       0.130000
     44 H17         -8.0960    15.7140     3.4180 hc         1 9QU       0.052450
     45 H18         -8.6520    14.1640     4.0160 hc         1 9QU       0.052450
     46 H19         -9.3100    14.4920     1.6450 hc         1 9QU       0.054950
     47 H20         -8.2260    13.1220     1.7970 hc         1 9QU       0.054950
     48 H21         -7.4280    15.9330     0.9400 hc         1 9QU       0.049700
     49 H22         -5.7050    13.4270     1.1040 hc         1 9QU       0.054950
     50 H23         -5.1750    15.0010     0.5700 hc         1 9QU       0.054950
     51 H24         -4.5230    14.6380     2.9410 hc         1 9QU       0.052450
     52 H25         -5.6200    15.9950     2.7740 hc         1 9QU       0.052450
     53 H26         -6.8470    11.6790    -3.3770 ha         1 9QU       0.147000
     54 H27         -8.2810    11.9700    -5.3780 ha         1 9QU       0.131000
     55 H28         -9.9660    13.7570    -5.4760 ha         1 9QU       0.130000
     56 H29        -10.2840    15.3200    -3.5800 ha         1 9QU       0.134000
     57 H7          -9.4440    11.0880    -0.4700 ha         1 9QU       0.135000
@<TRIPOS>BOND
     1     1     2 1   
     2     1     8 1   
     3     1    31 1   
     4     2     3 1   
     5     2    32 1   
     6     2    33 1   
     7     3     4 1   
     8     3    14 2   
     9     4     5 1   
    10     4    34 1   
    11     5    19 1   
    12     5    23 1   
    13     5    35 1   
    14     6    12 ar  
    15     6    18 ar  
    16     6    57 1   
    17     7    10 2   
    18     7    12 1   
    19     7    36 1   
    20     8    10 1   
    21     8    37 1   
    22     8    38 1   
    23     9    24 1   
    24     9    30 1   
    25     9    39 1   
    26    10    15 1   
    27    11    12 ar  
    28    11    15 1   
    29    11    16 ar  
    30    13    24 2   
    31    13    25 1   
    32    15    40 1   
    33    16    17 ar  
    34    16    41 1   
    35    17    18 ar  
    36    17    42 1   
    37    18    43 1   
    38    19    20 1   
    39    19    44 1   
    40    19    45 1   
    41    20    21 1   
    42    20    46 1   
    43    20    47 1   
    44    21    22 1   
    45    21    24 1   
    46    21    48 1   
    47    22    23 1   
    48    22    49 1   
    49    22    50 1   
    50    23    51 1   
    51    23    52 1   
    52    25    26 ar  
    53    25    30 ar  
    54    26    27 ar  
    55    26    53 1   
    56    27    28 ar  
    57    27    54 1   
    58    28    29 ar  
    59    28    55 1   
    60    29    30 ar  
    61    29    56 1   
@<TRIPOS>SUBSTRUCTURE
     1 9QU         1 TEMP              0 ****  ****    0 ROOT
