@<TRIPOS>MOLECULE
9QU
   57    61     1     0     0
SMALL
No Charge or Current Charge


@<TRIPOS>ATOM
      1 N1          -6.7360     9.4570     5.1540 n7         1 9QU      -0.845400
      2 C7          -5.8910    10.5840     4.6220 c3         1 9QU       0.083800
      3 C8          -6.3990    12.0400     4.8960 c          1 9QU       0.598100
      4 N2          -6.1490    12.9300     3.8720 ns         1 9QU      -0.511900
      5 C9          -6.6010    14.3270     3.8130 c6         1 9QU       0.122700
      6 C1          -9.7150    10.9180     0.1610 ca         1 9QU      -0.047000
      7 C5          -9.2440    10.5120     2.6570 cc         1 9QU      -0.223200
      8 C6          -8.1760     9.4750     4.7940 c3         1 9QU       0.213000
      9 N3          -8.6310    14.4870    -1.3370 na         1 9QU      -0.315600
     10 C4          -8.4170     9.6010     3.3040 cd         1 9QU      -0.116300
     11 C3          -8.2570     9.2230     1.0980 ca         1 9QU      -0.045200
     12 C2          -9.1260    10.2670     1.2530 ca         1 9QU      -0.101800
     13 N4          -6.7220    13.2290    -1.0750 nc         1 9QU      -0.576100
     14 O           -6.9690    12.3840     5.9260 o          1 9QU      -0.590100
     15 N           -7.8070     8.7700     2.3290 na         1 9QU      -0.228700
     16 C22         -7.9130     8.7470    -0.1750 ca         1 9QU      -0.135000
     17 C23         -8.4900     9.3770    -1.3000 ca         1 9QU      -0.088000
     18 C           -9.3890    10.4580    -1.1320 ca         1 9QU      -0.140000
     19 C14         -8.0780    14.3990     3.3440 c6         1 9QU      -0.092900
     20 C13         -8.2480    13.8960     1.8870 c6         1 9QU      -0.071900
     21 C12         -7.3540    14.6850     0.8940 c6         1 9QU      -0.076000
     22 C11         -5.8660    14.6620     1.3610 c6         1 9QU      -0.071900
     23 C10         -5.7180    15.1430     2.8310 c6         1 9QU      -0.092900
     24 C15         -7.5460    14.1410    -0.5160 cd         1 9QU       0.418800
     25 C17         -7.3220    12.9790    -2.2950 ca         1 9QU       0.069400
     26 C18         -6.9070    12.0870    -3.2950 ca         1 9QU      -0.050000
     27 C19         -7.6880    11.9760    -4.4670 ca         1 9QU      -0.137000
     28 C20         -8.8610    12.7510    -4.6180 ca         1 9QU      -0.094000
     29 C21         -9.2580    13.6410    -3.5990 ca         1 9QU      -0.116000
     30 C16         -8.4550    13.7210    -2.4540 ca         1 9QU      -0.081200
     31 H1          -6.3340     8.5700     4.8250 hn         1 9QU       0.413000
     32 H3          -5.7920    10.4820     3.5330 h1         1 9QU       0.048200
     33 H4          -4.8740    10.5210     5.0300 h1         1 9QU       0.048200
     34 H5          -5.6740    12.5550     3.0610 hn         1 9QU       0.317500
     35 H6          -6.5170    14.7640     4.8190 h1         1 9QU       0.070700
     36 H8          -9.8450    11.2780     3.1410 ha         1 9QU       0.205000
     37 H9          -8.6810    10.3150     5.2930 h1         1 9QU       0.073200
     38 H10         -8.6710     8.5600     5.1510 h1         1 9QU       0.073200
     39 H11         -9.3780    15.1330    -1.1210 hn         1 9QU       0.355000
     40 H13         -7.1630     8.0050     2.4960 hn         1 9QU       0.342000
     41 H14         -7.2190     7.9190    -0.2950 ha         1 9QU       0.110000
     42 H15         -8.2390     9.0340    -2.3010 ha         1 9QU       0.108000
     43 H16         -9.8230    10.9420    -2.0040 ha         1 9QU       0.112000
     44 H17         -8.4350    15.4360     3.4190 hc         1 9QU       0.052450
     45 H18         -8.7140    13.8090     4.0170 hc         1 9QU       0.052450
     46 H19         -9.3030    13.9790     1.5900 hc         1 9QU       0.054950
     47 H20         -7.9950    12.8300     1.8300 hc         1 9QU       0.054950
     48 H21         -7.6860    15.7330     0.9020 hc         1 9QU       0.049700
     49 H22         -5.4520    13.6480     1.2680 hc         1 9QU       0.054950
     50 H23         -5.2600    15.3000     0.7030 hc         1 9QU       0.054950
     51 H24         -4.6650    15.0810     3.1390 hc         1 9QU       0.052450
     52 H25         -5.9910    16.2060     2.8960 hc         1 9QU       0.052450
     53 H26         -6.0060    11.4920    -3.1660 ha         1 9QU       0.129000
     54 H27         -7.3860    11.2890    -5.2540 ha         1 9QU       0.113000
     55 H28         -9.4600    12.6600    -5.5220 ha         1 9QU       0.112000
     56 H29        -10.1600    14.2410    -3.6990 ha         1 9QU       0.116000
     57 H7         -10.3970    11.7530     0.3050 ha         1 9QU       0.117000
@<TRIPOS>BOND
     1     1     2 1   
     2     1     8 1   
     3     1    31 1   
     4     2     3 1   
     5     2    32 1   
     6     2    33 1   
     7     3     4 1   
     8     3    14 2   
     9     4     5 1   
    10     4    34 1   
    11     5    19 1   
    12     5    23 1   
    13     5    35 1   
    14     6    12 ar  
    15     6    18 ar  
    16     6    57 1   
    17     7    10 2   
    18     7    12 1   
    19     7    36 1   
    20     8    10 1   
    21     8    37 1   
    22     8    38 1   
    23     9    24 1   
    24     9    30 1   
    25     9    39 1   
    26    10    15 1   
    27    11    12 ar  
    28    11    15 1   
    29    11    16 ar  
    30    13    24 2   
    31    13    25 1   
    32    15    40 1   
    33    16    17 ar  
    34    16    41 1   
    35    17    18 ar  
    36    17    42 1   
    37    18    43 1   
    38    19    20 1   
    39    19    44 1   
    40    19    45 1   
    41    20    21 1   
    42    20    46 1   
    43    20    47 1   
    44    21    22 1   
    45    21    24 1   
    46    21    48 1   
    47    22    23 1   
    48    22    49 1   
    49    22    50 1   
    50    23    51 1   
    51    23    52 1   
    52    25    26 ar  
    53    25    30 ar  
    54    26    27 ar  
    55    26    53 1   
    56    27    28 ar  
    57    27    54 1   
    58    28    29 ar  
    59    28    55 1   
    60    29    30 ar  
    61    29    56 1   
@<TRIPOS>SUBSTRUCTURE
     1 9QU         1 TEMP              0 ****  ****    0 ROOT
