@<TRIPOS>MOLECULE
9QW
   62    66     1     0     0
SMALL
abcg2


@<TRIPOS>ATOM
      1 C1          -0.5110    -1.5070     0.4520 cc         1 9QW       0.166500
      2 C2          -0.4390    -0.1640     0.6070 cd         1 9QW      -0.191300
      3 C12          0.9660     0.3070     0.7600 c5         1 9QW       0.254300
      4 C13          1.4480     1.2890    -0.2750 ca         1 9QW      -0.106300
      5 C14          3.0550    -1.0750     0.7020 cc         1 9QW      -0.057600
      6 C16          2.0610     2.4680     0.1210 ca         1 9QW      -0.081500
      7 C17          2.5080     3.3880    -0.8190 ca         1 9QW      -0.109500
      8 C18          2.3390     3.1060    -2.1630 ca         1 9QW       0.127000
      9 C19          1.7410     1.9250    -2.5820 ca         1 9QW      -0.109500
     10 C20          1.3000     1.0200    -1.6320 ca         1 9QW      -0.081500
     11 C21          3.6940    -0.6250     1.9190 c          1 9QW       0.545200
     12 C23          5.7890    -1.2670     0.9100 cc         1 9QW      -0.030400
     13 C24          5.1740    -1.6990    -0.2200 cd         1 9QW      -0.003000
     14 C25          3.7760    -1.5860    -0.3330 cd         1 9QW      -0.078000
     15 C27         -4.6760    -1.3820     1.4980 ca         1 9QW       0.202900
     16 C29         -6.6240    -0.8670     0.5150 ca         1 9QW       0.404300
     17 N3          -1.7100     0.2930     0.6110 na         1 9QW      -0.115500
     18 C4          -2.4980    -0.8290     0.4570 cd         1 9QW       0.478000
     19 N5          -1.7940    -1.9330     0.3600 nc         1 9QW      -0.583000
     20 C6          -2.1770     1.6650     0.8280 c3         1 9QW       0.090300
     21 C7          -1.6160     2.2190     2.1290 c3         1 9QW      -0.109100
     22 C8          -1.8680     2.5610    -0.3620 c3         1 9QW      -0.109100
     23 C9          -3.9610    -0.7990     0.4750 ca         1 9QW      -0.311500
     24 C10          0.8310    -2.0800     0.4650 c          1 9QW       0.519500
     25 N11          1.6610    -0.9870     0.6390 n          1 9QW      -0.350000
     26 O15          1.1950    -3.2320     0.3580 o          1 9QW      -0.501000
     27 N22          5.0750    -0.7400     1.9310 n          1 9QW      -0.259000
     28 CL2          2.8850     4.2450    -3.3490 cl         1 9QW      -0.200000
     29 N28         -6.0050    -1.4250     1.5360 nb         1 9QW      -0.281000
     30 N30         -6.0570    -0.2920    -0.5400 nb         1 9QW      -0.293000
     31 C31         -4.7450    -0.2640    -0.5660 ca         1 9QW       0.406300
     32 O32         -4.1130     0.2710    -1.5890 os         1 9QW      -0.446300
     33 C33         -4.8790     0.8350    -2.6550 c3         1 9QW       0.155900
     34 C35          5.7660    -0.2890     3.1340 c3         1 9QW       0.076300
     35 O36          3.1010    -0.1620     2.8880 o          1 9QW      -0.561000
     36 CL3          6.0990    -2.3640    -1.5160 cl         1 9QW      -0.162000
     37 C38         -8.6590    -1.4470     1.5570 c3         1 9QW       0.162900
     38 H1           1.1370     0.7160     1.7600 h1         1 9QW       0.100700
     39 H2           2.1960     2.6830     1.1740 ha         1 9QW       0.128000
     40 H3           2.9790     4.3080    -0.5010 ha         1 9QW       0.132500
     41 H4           1.6180     1.7130    -3.6350 ha         1 9QW       0.132500
     42 H5           0.8290     0.1020    -1.9620 ha         1 9QW       0.128000
     43 H6           6.8590    -1.3240     1.0440 h4         1 9QW       0.215000
     44 H7           3.2800    -1.9020    -1.2410 ha         1 9QW       0.215000
     45 H8          -4.1510    -1.8340     2.3320 h4         1 9QW       0.040100
     46 H9          -3.2590     1.5890     0.9340 h1         1 9QW       0.070700
     47 H10         -0.5410     2.3980     2.0700 hc         1 9QW       0.051367
     48 H11         -2.0910     3.1750     2.3460 hc         1 9QW       0.051367
     49 H12         -1.8110     1.5470     2.9650 hc         1 9QW       0.051367
     50 H13         -2.2390     2.1350    -1.2920 hc         1 9QW       0.051367
     51 H14         -2.3490     3.5270    -0.2150 hc         1 9QW       0.051367
     52 H15         -0.7980     2.7380    -0.4700 hc         1 9QW       0.051367
     53 H16         -5.4960     0.0800    -3.1410 h1         1 9QW       0.054700
     54 H17         -5.5140     1.6460    -2.3000 h1         1 9QW       0.054700
     55 H18         -4.1520     1.2220    -3.3620 h1         1 9QW       0.054700
     56 H19          6.8310    -0.4550     3.0110 h1         1 9QW       0.057367
     57 H20          5.5870     0.7710     3.2980 h1         1 9QW       0.057367
     58 H21          5.4190    -0.8460     4.0020 h1         1 9QW       0.057367
     59 H22         -8.4520    -2.5140     1.6320 h1         1 9QW       0.053367
     60 H23         -8.4210    -0.9710     2.5080 h1         1 9QW       0.053367
     61 H24         -9.7110    -1.2970     1.3300 h1         1 9QW       0.053367
     62 O34         -7.9430    -0.8510     0.4790 os         1 9QW      -0.432300
@<TRIPOS>BOND
     1     1     2 2   
     2     1    19 1   
     3     1    24 1   
     4     2     3 1   
     5     2    17 1   
     6     3     4 1   
     7     3    25 1   
     8     3    38 1   
     9     4     6 ar  
    10     4    10 ar  
    11     5    11 1   
    12     5    14 2   
    13     5    25 1   
    14     6     7 ar  
    15     6    39 1   
    16     7     8 ar  
    17     7    40 1   
    18     8     9 ar  
    19     8    28 1   
    20     9    10 ar  
    21     9    41 1   
    22    10    42 1   
    23    11    27 1   
    24    11    35 2   
    25    12    13 2   
    26    12    27 1   
    27    12    43 1   
    28    13    14 1   
    29    13    36 1   
    30    14    44 1   
    31    15    23 ar  
    32    15    29 ar  
    33    15    45 1   
    34    16    29 ar  
    35    16    30 ar  
    36    16    62 1   
    37    17    18 1   
    38    17    20 1   
    39    18    19 2   
    40    18    23 1   
    41    20    21 1   
    42    20    22 1   
    43    20    46 1   
    44    21    47 1   
    45    21    48 1   
    46    21    49 1   
    47    22    50 1   
    48    22    51 1   
    49    22    52 1   
    50    23    31 ar  
    51    24    25 1   
    52    24    26 2   
    53    27    34 1   
    54    30    31 ar  
    55    31    32 1   
    56    32    33 1   
    57    33    53 1   
    58    33    54 1   
    59    33    55 1   
    60    34    56 1   
    61    34    57 1   
    62    34    58 1   
    63    37    59 1   
    64    37    60 1   
    65    37    61 1   
    66    37    62 1   
@<TRIPOS>SUBSTRUCTURE
     1 9QW         1 TEMP              0 ****  ****    0 ROOT
