@<TRIPOS>MOLECULE
9QW
   62    66     1     0     0
SMALL
No Charge or Current Charge


@<TRIPOS>ATOM
      1 C1          -0.5680    -1.4530     0.5280 cc         1 9QW       0.166500
      2 C2          -0.4720    -0.1210     0.6180 cd         1 9QW      -0.191300
      3 C12          0.9580     0.2510     0.9120 c5         1 9QW       0.254300
      4 C13          1.4370     1.1100    -0.2630 ca         1 9QW      -0.106300
      5 C14          3.0870    -1.1800     0.9080 cc         1 9QW      -0.057600
      6 C16          2.0770     2.3410    -0.0100 ca         1 9QW      -0.081500
      7 C17          2.5280     3.1450    -1.0710 ca         1 9QW      -0.109500
      8 C18          2.3470     2.7250    -2.3970 ca         1 9QW       0.127000
      9 C19          1.7170     1.5010    -2.6640 ca         1 9QW      -0.109500
     10 C20          1.2660     0.6950    -1.6050 ca         1 9QW      -0.081500
     11 C21          3.8940    -0.2470     1.7730 c          1 9QW       0.545200
     12 C23          5.8870    -1.4190     0.9440 cc         1 9QW      -0.030400
     13 C24          5.1460    -2.2750     0.1650 cd         1 9QW      -0.003000
     14 C25          3.7180    -2.1530     0.1440 cd         1 9QW      -0.078000
     15 C27         -4.7360    -1.7410     1.1660 ca         1 9QW       0.202900
     16 C29         -6.7320    -0.9840     0.3050 ca         1 9QW       0.404300
     17 N3          -1.7570     0.3810     0.6500 na         1 9QW      -0.115500
     18 C4          -2.5790    -0.7460     0.4430 cd         1 9QW       0.478000
     19 N5          -1.8640    -1.8730     0.4070 nc         1 9QW      -0.583000
     20 C6          -2.1790     1.7590     0.9860 c3         1 9QW       0.090300
     21 C7          -1.7690     2.1530     2.4210 c3         1 9QW      -0.109100
     22 C8          -1.6970     2.7950    -0.0510 c3         1 9QW      -0.109100
     23 C9          -4.0400    -0.7890     0.4080 ca         1 9QW      -0.311500
     24 C10          0.7500    -2.1190     0.6370 c          1 9QW       0.519500
     25 N11          1.6760    -1.0620     0.8410 n          1 9QW      -0.350000
     26 O15          0.9990    -3.3190     0.5980 o          1 9QW      -0.501000
     27 N22          5.2960    -0.4270     1.7250 n          1 9QW      -0.259000
     28 Cl2          2.9110     3.7320    -3.7240 cl         1 9QW      -0.200000
     29 N28         -6.0770    -1.8310     1.1270 nb         1 9QW      -0.281000
     30 N30         -6.1420    -0.0730    -0.4880 nb         1 9QW      -0.293000
     31 C31         -4.7980     0.0210    -0.4490 ca         1 9QW       0.406300
     32 O32         -4.1390     0.8870    -1.2910 os         1 9QW      -0.446300
     33 C33         -4.8590     1.7630    -2.1810 c3         1 9QW       0.155900
     34 C35          6.1390     0.4720     2.5490 c3         1 9QW       0.076300
     35 O36          3.3990     0.6080     2.5000 o          1 9QW      -0.561000
     36 Cl3          5.8850    -3.4990    -0.8140 cl         1 9QW      -0.162000
     37 C38         -8.8650    -1.9720     1.0370 c3         1 9QW       0.162900
     38 H1           1.0350     0.7450     1.8890 h1         1 9QW       0.100700
     39 H2           2.2240     2.6790     1.0130 ha         1 9QW       0.128000
     40 H3           3.0190     4.0940    -0.8650 ha         1 9QW       0.132500
     41 H4           1.5790     1.1750    -3.6920 ha         1 9QW       0.132500
     42 H5           0.7830    -0.2530    -1.8300 ha         1 9QW       0.128000
     43 H6           6.9690    -1.4390     1.0140 h4         1 9QW       0.215000
     44 H7           3.1530    -2.8150    -0.5030 ha         1 9QW       0.215000
     45 H8          -4.2200    -2.4320     1.8300 h4         1 9QW       0.040100
     46 H9          -3.2750     1.7750     0.9660 h1         1 9QW       0.070700
     47 H10         -0.6800     2.2180     2.5180 hc         1 9QW       0.051367
     48 H11         -2.1940     3.1280     2.6870 hc         1 9QW       0.051367
     49 H12         -2.1380     1.4140     3.1430 hc         1 9QW       0.051367
     50 H13         -1.9440     2.4740    -1.0700 hc         1 9QW       0.051367
     51 H14         -2.1760     3.7650     0.1260 hc         1 9QW       0.051367
     52 H15         -0.6140     2.9390     0.0070 hc         1 9QW       0.051367
     53 H16         -5.4710     1.1880    -2.8880 h1         1 9QW       0.054700
     54 H17         -5.5170     2.4390    -1.6190 h1         1 9QW       0.054700
     55 H18         -4.1590     2.3770    -2.7610 h1         1 9QW       0.054700
     56 H19          7.2040     0.2580     2.3990 h1         1 9QW       0.057367
     57 H20          5.9480     1.5170     2.2700 h1         1 9QW       0.057367
     58 H21          5.8970     0.3350     3.6110 h1         1 9QW       0.057367
     59 H22         -8.5860    -3.0070     0.8020 h1         1 9QW       0.053367
     60 H23         -8.6960    -1.7990     2.1080 h1         1 9QW       0.053367
     61 H24         -9.9390    -1.8580     0.8410 h1         1 9QW       0.053367
     62 O34         -8.1070    -1.0400     0.2380 os         1 9QW      -0.432300
@<TRIPOS>BOND
     1     1     2 2   
     2     1    19 1   
     3     1    24 1   
     4     2     3 1   
     5     2    17 1   
     6     3     4 1   
     7     3    25 1   
     8     3    38 1   
     9     4     6 ar  
    10     4    10 ar  
    11     5    11 1   
    12     5    14 2   
    13     5    25 1   
    14     6     7 ar  
    15     6    39 1   
    16     7     8 ar  
    17     7    40 1   
    18     8     9 ar  
    19     8    28 1   
    20     9    10 ar  
    21     9    41 1   
    22    10    42 1   
    23    11    27 1   
    24    11    35 2   
    25    12    13 2   
    26    12    27 1   
    27    12    43 1   
    28    13    14 1   
    29    13    36 1   
    30    14    44 1   
    31    15    23 ar  
    32    15    29 ar  
    33    15    45 1   
    34    16    29 ar  
    35    16    30 ar  
    36    16    62 1   
    37    17    18 1   
    38    17    20 1   
    39    18    19 2   
    40    18    23 1   
    41    20    21 1   
    42    20    22 1   
    43    20    46 1   
    44    21    47 1   
    45    21    48 1   
    46    21    49 1   
    47    22    50 1   
    48    22    51 1   
    49    22    52 1   
    50    23    31 ar  
    51    24    25 1   
    52    24    26 2   
    53    27    34 1   
    54    30    31 ar  
    55    31    32 1   
    56    32    33 1   
    57    33    53 1   
    58    33    54 1   
    59    33    55 1   
    60    34    56 1   
    61    34    57 1   
    62    34    58 1   
    63    37    59 1   
    64    37    60 1   
    65    37    61 1   
    66    37    62 1   
@<TRIPOS>SUBSTRUCTURE
     1 9QW         1 TEMP              0 ****  ****    0 ROOT
