@<TRIPOS>MOLECULE
9QY
   46    48     1     0     0
SMALL
No Charge or Current Charge


@<TRIPOS>ATOM
      1 CAA          2.4600     3.9030     1.0590 c3         1 9QY       0.152900
      2 CAF         -4.4330    -2.0760     2.2230 ca         1 9QY      -0.101000
      3 CAG         -3.8450    -2.7910     1.1670 ca         1 9QY      -0.108500
      4 CAH         -4.6110    -0.6870     2.1140 ca         1 9QY      -0.108500
      5 CAI         -2.6140     3.5710    -1.2010 cc         1 9QY       0.231900
      6 CAJ         -3.4310    -2.1170     0.0050 ca         1 9QY      -0.095000
      7 CAK         -4.1970    -0.0120     0.9530 ca         1 9QY      -0.095000
      8 CAL         -3.3800     2.5140    -1.6140 cd         1 9QY      -0.234000
      9 CAM          3.7430    -1.8970     0.8590 ca         1 9QY      -0.263000
     10 CAN         -0.4970     0.9560     0.0850 c3         1 9QY      -0.099700
     11 CAO          0.6300     0.5970    -0.9110 c3         1 9QY      -0.036100
     12 CAP         -3.1300    -0.0140    -1.3820 c3         1 9QY       0.118900
     13 CAS          3.1530     1.7770     0.1630 c          1 9QY       0.619700
     14 CAT         -3.5960    -0.7220    -0.1100 ca         1 9QY      -0.116300
     15 CAU          2.5680    -2.4780     0.3760 ca         1 9QY       0.221100
     16 CAV          3.9190    -0.5120     0.7810 ca         1 9QY       0.230100
     17 CAW          1.5570    -1.6790    -0.1930 ca         1 9QY      -0.034000
     18 CAX         -1.5600     1.8260    -0.5350 cd         1 9QY       0.408800
     19 CAY          1.7250    -0.2750    -0.2790 ca         1 9QY       0.061700
     20 CAZ          2.9210     0.3030     0.2200 ca         1 9QY      -0.196600
     21 NAQ         -1.4940     3.1490    -0.5410 nc         1 9QY      -0.678000
     22 NBA         -2.7030     1.3830    -1.1880 na         1 9QY      -0.163500
     23 OAB          3.8610     2.3060    -0.6850 o          1 9QY      -0.469000
     24 OAD          5.0670     0.0380     1.2670 oh         1 9QY      -0.507100
     25 OAR          2.3920     2.4660     1.0700 os         1 9QY      -0.436100
     26 Cl           0.0890    -2.4690    -0.7940 cl         1 9QY      -0.216000
     27 HAB          1.8080     4.3220     1.8360 h1         1 9QY       0.051367
     28 HAA          3.4840     4.2490     1.2520 h1         1 9QY       0.051367
     29 HAC          2.1340     4.3030     0.0900 h1         1 9QY       0.051367
     30 HAG         -3.7090    -3.8670     1.2480 ha         1 9QY       0.116000
     31 HAH         -5.0710    -0.1330     2.9300 ha         1 9QY       0.116000
     32 HAI         -2.8000     4.6280    -1.3410 h4         1 9QY       0.037100
     33 HAJ         -2.9790    -2.6820    -0.8070 ha         1 9QY       0.116500
     34 HAK         -4.3490     1.0630     0.8850 ha         1 9QY       0.116500
     35 HAL         -4.3180     2.4910    -2.1550 h4         1 9QY       0.156000
     36 HAM          4.5100    -2.5310     1.2950 ha         1 9QY       0.139000
     37 HAO         -0.9440     0.0370     0.4780 hc         1 9QY       0.073200
     38 HAN         -0.0660     1.4700     0.9510 hc         1 9QY       0.073200
     39 HAQ          0.1940     0.0920    -1.7800 hc         1 9QY       0.065200
     40 HAP          1.0500     1.5240    -1.3190 hc         1 9QY       0.065200
     41 HAR         -2.2910    -0.5690    -1.8220 h1         1 9QY       0.067200
     42 HAS         -3.9470    -0.0300    -2.1140 h1         1 9QY       0.067200
     43 HAD          5.6320    -0.6840     1.6130 ho         1 9QY       0.475000
     44 OAC          2.4160    -3.8290     0.4620 oh         1 9QY      -0.522100
     45 HAF         -4.7540    -2.5980     3.1230 ha         1 9QY       0.116000
     46 HAT          1.5400    -4.0470     0.0750 ho         1 9QY       0.484000
@<TRIPOS>BOND
     1     1    25 1   
     2     1    27 1   
     3     1    28 1   
     4     1    29 1   
     5     2     3 ar  
     6     2     4 ar  
     7     2    45 1   
     8     3     6 ar  
     9     3    30 1   
    10     4     7 ar  
    11     4    31 1   
    12     5     8 2   
    13     5    21 1   
    14     5    32 1   
    15     6    14 ar  
    16     6    33 1   
    17     7    14 ar  
    18     7    34 1   
    19     8    22 1   
    20     8    35 1   
    21     9    15 ar  
    22     9    16 ar  
    23     9    36 1   
    24    10    11 1   
    25    10    18 1   
    26    10    37 1   
    27    10    38 1   
    28    11    19 1   
    29    11    39 1   
    30    11    40 1   
    31    12    14 1   
    32    12    22 1   
    33    12    41 1   
    34    12    42 1   
    35    13    20 1   
    36    13    23 2   
    37    13    25 1   
    38    15    17 ar  
    39    15    44 1   
    40    16    20 ar  
    41    16    24 1   
    42    17    19 ar  
    43    17    26 1   
    44    18    21 2   
    45    18    22 1   
    46    19    20 ar  
    47    24    43 1   
    48    44    46 1   
@<TRIPOS>SUBSTRUCTURE
     1 9QY         1 TEMP              0 ****  ****    0 ROOT
