@<TRIPOS>MOLECULE
9QY
   46    48     1     0     0
SMALL
bcc


@<TRIPOS>ATOM
      1 CAA          2.1860     3.8390     0.8390 c3         1 9QY       0.129700
      2 CAF         -4.6210    -1.8940     2.2440 ca         1 9QY      -0.119000
      3 CAG         -3.9250    -2.6430     1.3060 ca         1 9QY      -0.126500
      4 CAH         -4.7960    -0.5310     2.0390 ca         1 9QY      -0.126500
      5 CAI         -2.5320     3.5010    -1.0010 cc         1 9QY       0.297200
      6 CAJ         -3.4060    -2.0320     0.1730 ca         1 9QY      -0.113000
      7 CAK         -4.2820     0.0780     0.9030 ca         1 9QY      -0.113000
      8 CAL         -3.2730     2.4580    -1.4720 cd         1 9QY      -0.266600
      9 CAM          3.8060    -1.9060     0.7300 ca         1 9QY      -0.281000
     10 CAN         -0.4640     0.7910     0.1160 c3         1 9QY      -0.099700
     11 CAO          0.6870     0.5930    -0.8850 c3         1 9QY      -0.036100
     12 CAP         -3.0370    -0.0340    -1.2980 c3         1 9QY       0.089600
     13 CAS          3.1670     1.7730     0.2560 c          1 9QY       0.668700
     14 CAT         -3.5820    -0.6680    -0.0410 ca         1 9QY      -0.116300
     15 CAU          2.6650    -2.4790     0.1870 ca         1 9QY       0.221100
     16 CAV          3.9530    -0.5280     0.7430 ca         1 9QY       0.230100
     17 CAW          1.6710    -1.6470    -0.3330 ca         1 9QY      -0.125600
     18 CAX         -1.4910     1.7280    -0.4160 cd         1 9QY       0.408800
     19 CAY          1.7880    -0.2600    -0.3150 ca         1 9QY       0.061700
     20 CAZ          2.9450     0.3010     0.2360 ca         1 9QY      -0.196600
     21 NAQ         -1.4260     3.0360    -0.3480 nc         1 9QY      -0.678000
     22 NBA         -2.5940     1.3290    -1.0990 na         1 9QY      -0.184900
     23 OAB          4.1220     2.3220    -0.2340 o          1 9QY      -0.518000
     24 OAD          5.0360     0.0570     1.2710 oh         1 9QY      -0.468100
     25 OAR          2.1890     2.4110     0.8790 os         1 9QY      -0.412900
     26 CL           0.2790    -2.4190    -1.0380 cl         1 9QY      -0.124400
     27 HAB          1.2200     4.1420     1.2310 h1         1 9QY       0.051367
     28 HAA          2.9820     4.2500     1.4580 h1         1 9QY       0.051367
     29 HAC          2.2920     4.2090    -0.1800 h1         1 9QY       0.051367
     30 HAG         -3.7750    -3.7040     1.4610 ha         1 9QY       0.134000
     31 HAH         -5.3360     0.0610     2.7670 ha         1 9QY       0.134000
     32 HAI         -2.7380     4.5560    -1.0970 h4         1 9QY       0.037100
     33 HAJ         -2.8570    -2.6230    -0.5500 ha         1 9QY       0.134500
     34 HAK         -4.4280     1.1420     0.7590 ha         1 9QY       0.134500
     35 HAL         -4.1970     2.4140    -2.0230 h4         1 9QY       0.174000
     36 HAM          4.5770    -2.5490     1.1400 ha         1 9QY       0.157000
     37 HAO         -0.9100    -0.1710     0.3730 hc         1 9QY       0.073200
     38 HAN         -0.0720     1.2100     1.0410 hc         1 9QY       0.073200
     39 HAQ          0.3070     0.1330    -1.7990 hc         1 9QY       0.065200
     40 HAP          1.0650     1.5680    -1.1870 hc         1 9QY       0.065200
     41 HAR         -2.2140    -0.6310    -1.6950 h1         1 9QY       0.067200
     42 HAS         -3.8040    -0.0150    -2.0730 h1         1 9QY       0.067200
     43 HAD          5.6500    -0.6070     1.6060 ho         1 9QY       0.436000
     44 OAC          2.5820    -3.8110     0.1910 oh         1 9QY      -0.483100
     45 HAF         -5.0210    -2.3660     3.1320 ha         1 9QY       0.134000
     46 HAT          1.7460    -4.1160    -0.1850 ho         1 9QY       0.445000
@<TRIPOS>BOND
     1     1    25 1   
     2     1    27 1   
     3     1    28 1   
     4     1    29 1   
     5     2     3 ar  
     6     2     4 ar  
     7     2    45 1   
     8     3     6 ar  
     9     3    30 1   
    10     4     7 ar  
    11     4    31 1   
    12     5     8 2   
    13     5    21 1   
    14     5    32 1   
    15     6    14 ar  
    16     6    33 1   
    17     7    14 ar  
    18     7    34 1   
    19     8    22 1   
    20     8    35 1   
    21     9    15 ar  
    22     9    16 ar  
    23     9    36 1   
    24    10    11 1   
    25    10    18 1   
    26    10    37 1   
    27    10    38 1   
    28    11    19 1   
    29    11    39 1   
    30    11    40 1   
    31    12    14 1   
    32    12    22 1   
    33    12    41 1   
    34    12    42 1   
    35    13    20 1   
    36    13    23 2   
    37    13    25 1   
    38    15    17 ar  
    39    15    44 1   
    40    16    20 ar  
    41    16    24 1   
    42    17    19 ar  
    43    17    26 1   
    44    18    21 2   
    45    18    22 1   
    46    19    20 ar  
    47    24    43 1   
    48    44    46 1   
@<TRIPOS>SUBSTRUCTURE
     1 9QY         1 TEMP              0 ****  ****    0 ROOT
