@<TRIPOS>MOLECULE
9QZ
   60    61     1     0     0
SMALL
No Charge or Current Charge


@<TRIPOS>ATOM
      1 C03          4.7410     0.0750    -3.2620 c3         1 9QZ       0.148600
      2 C04          3.6490     0.3140    -2.1650 c6         1 9QZ       0.185300
      3 C06          1.3220    -0.1420    -1.6880 c6         1 9QZ       0.412300
      4 C09         -1.8110     0.1320    -1.0510 c6         1 9QZ       0.095300
      5 C11         -3.0680    -1.3420     0.4440 c6         1 9QZ       0.370300
      6 C13         -4.3280    -0.3990     0.4370 c6         1 9QZ       0.194300
      7 C19         -3.8540     1.0760     0.1980 c6         1 9QZ       0.229300
      8 C25         -3.0010     1.1320    -1.1240 c6         1 9QZ       0.127300
      9 C31          1.6420    -0.6830    -0.2490 c6         1 9QZ       0.149300
     10 C37          2.9210     0.0700     0.2510 c6         1 9QZ       0.176300
     11 C43          4.0950    -0.1970    -0.7570 c6         1 9QZ       0.203300
     12 O02          4.3400     0.4990    -4.5840 oh         1 9QZ      -0.726000
     13 O05          2.4350    -0.3640    -2.5770 os         1 9QZ      -0.478000
     14 O07          0.1610    -0.7600    -2.2790 os         1 9QZ      -0.434000
     15 O10         -2.3190    -1.1990    -0.7730 os         1 9QZ      -0.481000
     16 O12         -2.1710    -1.0810     1.5200 oh         1 9QZ      -0.679000
     17 O14         -5.0670    -0.5000     1.6840 os         1 9QZ      -0.535700
     18 O16         -5.7130    -2.8450     1.3130 o          1 9QZ      -0.737200
     19 O17         -6.6890    -1.5660     3.1880 o          1 9QZ      -0.737200
     20 O18         -7.3210    -1.0340     0.8610 o          1 9QZ      -0.737200
     21 O20         -5.0030     1.9560     0.0710 os         1 9QZ      -0.595700
     22 O22         -4.7670     3.0440     2.2640 o          1 9QZ      -0.729200
     23 O23         -3.8450     4.0860     0.2290 o          1 9QZ      -0.729200
     24 O24         -6.2920     3.9840     0.5590 o          1 9QZ      -0.729200
     25 O26         -2.5250     2.4640    -1.4060 oh         1 9QZ      -0.681000
     26 O32          1.8640    -2.1240    -0.2520 os         1 9QZ      -0.586700
     27 O34         -0.1070    -2.6210     1.1350 o          1 9QZ      -0.713533
     28 O35          1.5140    -4.4050     0.5820 o          1 9QZ      -0.713533
     29 O36          2.1440    -2.5920     2.1350 o          1 9QZ      -0.713533
     30 O38          2.6500     1.4970     0.3440 os         1 9QZ      -0.603700
     31 O40          2.1410     3.5770     1.5370 o          1 9QZ      -0.717867
     32 O41          0.8880     1.5120     2.0410 o          1 9QZ      -0.717867
     33 O42          3.2490     1.7150     2.7230 o          1 9QZ      -0.717867
     34 O44          5.3060     0.4760    -0.3280 os         1 9QZ      -0.580700
     35 O46          6.9160    -1.2140    -1.0720 o          1 9QZ      -0.727200
     36 O47          7.6010     0.5320     0.5340 o          1 9QZ      -0.727200
     37 O48          6.0520    -1.2610     1.2360 o          1 9QZ      -0.727200
     38 S15         -6.3020    -1.5770     1.7690 s6         1 9QZ       1.515300
     39 S21         -4.9790     3.3930     0.8540 s6         1 9QZ       1.518300
     40 S33          1.3030    -3.0150     1.0090 s6         1 9QZ       1.501300
     41 S39          2.1940     2.1310     1.7890 s6         1 9QZ       1.500300
     42 S45          6.5810    -0.4460     0.1350 s6         1 9QZ       1.502300
     43 H1           5.6500     0.6130    -2.9620 h1         1 9QZ       0.038700
     44 H2           4.9860    -0.9960    -3.2690 h1         1 9QZ       0.038700
     45 H3           3.4530     1.3950    -2.1170 h1         1 9QZ       0.056700
     46 H4           1.1470     0.9430    -1.6250 h2         1 9QZ       0.028700
     47 H5          -1.6980    -0.3900    -3.1560 h1         1 9QZ       0.013200
     48 H6          -0.7660     1.0550    -2.7470 h1         1 9QZ       0.013200
     49 H7          -1.1220     0.4510    -0.2560 h1         1 9QZ       0.108700
     50 H8          -3.4130    -2.3850     0.5130 h2         1 9QZ       0.078700
     51 H9          -4.9810    -0.6840    -0.4020 h1         1 9QZ       0.035700
     52 H10         -3.2270     1.3750     1.0520 h1         1 9QZ       0.100700
     53 H11         -3.6540     0.8120    -1.9500 h1         1 9QZ       0.011700
     54 H12          0.7960    -0.4340     0.4030 h1         1 9QZ       0.107700
     55 H13          3.2200    -0.3260     1.2320 h1         1 9QZ       0.115700
     56 H14          4.2690    -1.2820    -0.8230 h1         1 9QZ       0.072700
     57 H15          5.0640     0.2420    -5.1990 ho         1 9QZ       0.451000
     58 H16         -1.3960    -1.6940     1.3480 ho         1 9QZ       0.514000
     59 H17         -3.0570     3.0890    -0.8380 ho         1 9QZ       0.455000
     60 C08         -1.0300     0.0460    -2.4020 c3         1 9QZ       0.187600
@<TRIPOS>BOND
     1     1     2 1   
     2     1    12 1   
     3     1    43 1   
     4     1    44 1   
     5     2    11 1   
     6     2    13 1   
     7     2    45 1   
     8     3     9 1   
     9     3    13 1   
    10     3    14 1   
    11     3    46 1   
    12     4     8 1   
    13     4    15 1   
    14     4    49 1   
    15     4    60 1   
    16     5     6 1   
    17     5    15 1   
    18     5    16 1   
    19     5    50 1   
    20     6     7 1   
    21     6    17 1   
    22     6    51 1   
    23     7     8 1   
    24     7    21 1   
    25     7    52 1   
    26     8    25 1   
    27     8    53 1   
    28     9    10 1   
    29     9    26 1   
    30     9    54 1   
    31    10    11 1   
    32    10    30 1   
    33    10    55 1   
    34    11    34 1   
    35    11    56 1   
    36    12    57 1   
    37    14    60 1   
    38    16    58 1   
    39    17    38 1   
    40    18    38 1   
    41    19    38 1   
    42    20    38 1   
    43    21    39 1   
    44    22    39 1   
    45    23    39 1   
    46    24    39 1   
    47    25    59 1   
    48    26    40 1   
    49    27    40 1   
    50    28    40 1   
    51    29    40 1   
    52    30    41 1   
    53    31    41 1   
    54    32    41 1   
    55    33    41 1   
    56    34    42 1   
    57    35    42 1   
    58    36    42 1   
    59    37    42 1   
    60    47    60 1   
    61    48    60 1   
@<TRIPOS>SUBSTRUCTURE
     1 9QZ         1 TEMP              0 ****  ****    0 ROOT
