@<TRIPOS>MOLECULE
9QZ
   60    61     1     0     0
SMALL
bcc


@<TRIPOS>ATOM
      1 C03          4.6180    -0.3680    -3.2230 c3         1 9QZ       0.125400
      2 C04          3.6480     0.1650    -2.1900 c6         1 9QZ       0.162100
      3 C06          1.3200     0.1940    -1.7380 c6         1 9QZ       0.365900
      4 C09         -1.7000     0.5500    -0.9830 c6         1 9QZ       0.072100
      5 C11         -2.5620    -1.0600     0.5330 c6         1 9QZ       0.323900
      6 C13         -3.9470    -0.4150     0.4960 c6         1 9QZ       0.171100
      7 C19         -3.8450     1.0800     0.2080 c6         1 9QZ       0.206100
      8 C25         -3.0370     1.2980    -1.0690 c6         1 9QZ       0.104100
      9 C31          1.5000    -0.3920    -0.3350 c6         1 9QZ       0.126100
     10 C37          2.8750     0.0260     0.2040 c6         1 9QZ       0.153100
     11 C43          3.9670    -0.3630    -0.7870 c6         1 9QZ       0.180100
     12 O02          4.3360     0.2400    -4.4610 oh         1 9QZ      -0.603800
     13 O05          2.3510    -0.2440    -2.5760 os         1 9QZ      -0.431600
     14 O07          0.1660    -0.2480    -2.3600 os         1 9QZ      -0.387600
     15 O10         -1.9150    -0.8140    -0.6910 os         1 9QZ      -0.434600
     16 O12         -1.8710    -0.5660     1.6190 oh         1 9QZ      -0.616800
     17 O14         -4.6070    -0.6070     1.7300 os         1 9QZ      -0.512500
     18 O16         -5.2250    -2.9780     1.3970 o          1 9QZ      -0.737200
     19 O17         -6.2140    -1.6120     3.1910 o          1 9QZ      -0.737200
     20 O18         -6.8450    -1.2310     0.8390 o          1 9QZ      -0.737200
     21 O20         -5.1460     1.5980    -0.0020 os         1 9QZ      -0.572500
     22 O22         -5.9450     2.0830     2.3120 o          1 9QZ      -0.729200
     23 O23         -4.7870     3.8240     1.0430 o          1 9QZ      -0.729200
     24 O24         -7.0070     3.0460     0.3120 o          1 9QZ      -0.729200
     25 O26         -2.8390     2.6760    -1.2500 oh         1 9QZ      -0.558800
     26 O32          1.3880    -1.7970    -0.4760 os         1 9QZ      -0.563500
     27 O34          0.4750    -1.9380     1.8400 o          1 9QZ      -0.713533
     28 O35          0.3880    -3.8480     0.2790 o          1 9QZ      -0.713533
     29 O36          2.5260    -3.1330     1.2610 o          1 9QZ      -0.713533
     30 O38          2.9170     1.4420     0.3200 os         1 9QZ      -0.580500
     31 O40          2.8690     3.5330     1.4730 o          1 9QZ      -0.717867
     32 O41          0.9150     2.0530     1.6630 o          1 9QZ      -0.717867
     33 O42          3.0080     1.4620     2.8030 o          1 9QZ      -0.717867
     34 O44          5.2030     0.1940    -0.3770 os         1 9QZ      -0.557500
     35 O46          6.7030    -1.7280    -0.8270 o          1 9QZ      -0.727200
     36 O47          7.3730     0.1500     0.6210 o          1 9QZ      -0.727200
     37 O48          5.6920    -1.4800     1.3920 o          1 9QZ      -0.727200
     38 S15         -5.8290    -1.6970     1.7840 s6         1 9QZ       1.515300
     39 S21         -5.7630     2.7320     1.0150 s6         1 9QZ       1.518300
     40 S33          1.1800    -2.7570     0.8350 s6         1 9QZ       1.501300
     41 S39          2.3750     2.1750     1.6920 s6         1 9QZ       1.500300
     42 S45          6.3370    -0.8150     0.2600 s6         1 9QZ       1.502300
     43 H1           5.6370    -0.1500    -2.8890 h1         1 9QZ       0.038700
     44 H2           4.5220    -1.4620    -3.2720 h1         1 9QZ       0.038700
     45 H3           3.7100     1.2650    -2.1820 h1         1 9QZ       0.056700
     46 H4           1.3260     1.2950    -1.6550 h2         1 9QZ       0.028700
     47 H5          -1.6230     0.2490    -3.1100 h1         1 9QZ       0.013200
     48 H6          -0.6800     1.6320    -2.5410 h1         1 9QZ       0.013200
     49 H7          -1.0890     1.0300    -0.2050 h1         1 9QZ       0.108700
     50 H8          -2.6670    -2.1510     0.5740 h2         1 9QZ       0.078700
     51 H9          -4.5030    -0.8780    -0.3290 h1         1 9QZ       0.035700
     52 H10         -3.3390     1.5850     1.0390 h1         1 9QZ       0.100700
     53 H11         -3.6110     0.8660    -1.9030 h1         1 9QZ       0.011700
     54 H12          0.7260    -0.0040     0.3280 h1         1 9QZ       0.107700
     55 H13          3.0830    -0.4440     1.1690 h1         1 9QZ       0.115700
     56 H14          4.0080    -1.4580    -0.8230 h1         1 9QZ       0.072700
     57 H15          4.9860    -0.0710    -5.0980 ho         1 9QZ       0.352000
     58 H16         -1.0280    -1.0560     1.7040 ho         1 9QZ       0.475000
     59 H17         -2.7600     2.8570    -2.1900 ho         1 9QZ       0.356000
     60 C08         -0.9590     0.5960    -2.3130 c3         1 9QZ       0.164400
@<TRIPOS>BOND
     1     1     2 1   
     2     1    12 1   
     3     1    43 1   
     4     1    44 1   
     5     2    11 1   
     6     2    13 1   
     7     2    45 1   
     8     3     9 1   
     9     3    13 1   
    10     3    14 1   
    11     3    46 1   
    12     4     8 1   
    13     4    15 1   
    14     4    49 1   
    15     4    60 1   
    16     5     6 1   
    17     5    15 1   
    18     5    16 1   
    19     5    50 1   
    20     6     7 1   
    21     6    17 1   
    22     6    51 1   
    23     7     8 1   
    24     7    21 1   
    25     7    52 1   
    26     8    25 1   
    27     8    53 1   
    28     9    10 1   
    29     9    26 1   
    30     9    54 1   
    31    10    11 1   
    32    10    30 1   
    33    10    55 1   
    34    11    34 1   
    35    11    56 1   
    36    12    57 1   
    37    14    60 1   
    38    16    58 1   
    39    17    38 1   
    40    18    38 1   
    41    19    38 1   
    42    20    38 1   
    43    21    39 1   
    44    22    39 1   
    45    23    39 1   
    46    24    39 1   
    47    25    59 1   
    48    26    40 1   
    49    27    40 1   
    50    28    40 1   
    51    29    40 1   
    52    30    41 1   
    53    31    41 1   
    54    32    41 1   
    55    33    41 1   
    56    34    42 1   
    57    35    42 1   
    58    36    42 1   
    59    37    42 1   
    60    47    60 1   
    61    48    60 1   
@<TRIPOS>SUBSTRUCTURE
     1 9QZ         1 TEMP              0 ****  ****    0 ROOT
