@<TRIPOS>MOLECULE
9R0
   62    68     1     0     0
SMALL
abcg2


@<TRIPOS>ATOM
      1 C1           0.6300     1.3530     1.4560 ca         1 9R0      -0.104000
      2 C2           1.7950     1.4510     0.7140 ca         1 9R0       0.140500
      3 C3           1.7830     1.4920    -0.6780 ca         1 9R0      -0.139500
      4 C4           0.5440     1.4150    -1.3100 ca         1 9R0       0.140500
      5 C5          -0.6370     1.3290    -0.5920 ca         1 9R0      -0.104000
      6 C6          -0.5850     1.2940     0.7930 ca         1 9R0      -0.065000
      7 C7           3.0400     1.5680    -1.4400 cc         1 9R0       0.352500
      8 N1           3.4860     2.6990    -1.8960 nd         1 9R0      -0.334300
      9 O1           4.6570     2.4010    -2.5300 os         1 9R0      -0.080700
     10 C8           4.9060     1.0900    -2.4530 cd         1 9R0       0.231300
     11 C9           3.9060     0.4890    -1.7550 cc         1 9R0      -0.200300
     12 C10          6.1150     0.5690    -3.0830 cx         1 9R0      -0.187000
     13 C11          7.3750     1.3950    -3.1460 cx         1 9R0      -0.109900
     14 C12          6.6060     1.1330    -4.3930 cx         1 9R0      -0.109900
     15 C13          3.6730    -0.9390    -1.4280 c3         1 9R0       0.242900
     16 O2           2.6490    -1.4180    -2.2710 os         1 9R0      -0.440000
     17 C14          1.9870    -2.5450    -1.7660 cy         1 9R0       0.148300
     18 C15          1.0530    -2.3230    -0.5570 cy         1 9R0      -0.092400
     19 C16         -0.0900    -2.9940    -1.3590 cy         1 9R0      -0.090000
     20 C17          0.7850    -2.9600    -2.6220 cy         1 9R0      -0.092400
     21 C18         -1.4040    -2.2380    -1.3890 c5         1 9R0       0.246800
     22 N2          -2.0490    -2.6910    -0.1680 nh         1 9R0      -0.757600
     23 C19         -1.4910    -3.9500     0.3130 c5         1 9R0       0.231800
     24 C20         -0.5240    -4.3440    -0.8010 c5         1 9R0      -0.078400
     25 C21         -2.8760    -1.9190     0.5340 cc         1 9R0       0.640100
     26 N3          -3.3320    -0.7670     0.1420 nd         1 9R0      -0.649100
     27 C22         -4.1330    -0.2090     1.1020 ca         1 9R0       0.101400
     28 C23         -4.3150    -0.9690     2.2710 ca         1 9R0      -0.189000
     29 S1          -3.4100    -2.4530     2.1300 ss         1 9R0      -0.098200
     30 C24         -4.7660     1.0310     1.0170 ca         1 9R0      -0.122000
     31 C25         -5.5530     1.4660     2.0690 ca         1 9R0      -0.072000
     32 C26         -5.7350     0.7000     3.2260 ca         1 9R0      -0.132600
     33 C27         -5.1010    -0.5360     3.3230 ca         1 9R0      -0.046000
     34 C28         -6.6110     1.2020     4.3630 c          1 9R0       0.711600
     35 O3          -7.1660     2.3060     4.1970 o          1 9R0      -0.717000
     36 O4          -6.7040     0.4670     5.3660 o          1 9R0      -0.717000
     37 CL1          3.3120     1.5160     1.5410 cl         1 9R0      -0.193000
     38 CL2          0.4730     1.3920    -3.0340 cl         1 9R0      -0.193000
     39 H1           0.6700     1.3220     2.5360 ha         1 9R0       0.147500
     40 H2          -1.5870     1.2640    -1.1030 ha         1 9R0       0.147500
     41 H3          -1.5020     1.2140     1.3600 ha         1 9R0       0.155000
     42 H4           6.2440    -0.4960    -2.9390 hc         1 9R0       0.095700
     43 H5           7.3490     2.3920    -2.7270 hc         1 9R0       0.079700
     44 H6           8.3060     0.8670    -2.9920 hc         1 9R0       0.079700
     45 H7           7.0020     0.4230    -5.1070 hc         1 9R0       0.079700
     46 H8           6.0460     1.9480    -4.8330 hc         1 9R0       0.079700
     47 H9           4.5920    -1.5260    -1.5430 h1         1 9R0       0.034700
     48 H10          3.3820    -1.0230    -0.3730 h1         1 9R0       0.034700
     49 H11          2.6880    -3.3720    -1.5970 h1         1 9R0       0.035700
     50 H12          1.3380    -2.8070     0.3780 hc         1 9R0       0.064450
     51 H13          0.8650    -1.2670    -0.3560 hc         1 9R0       0.064450
     52 H14          0.4910    -2.1620    -3.3080 hc         1 9R0       0.064450
     53 H15          0.8750    -3.8890    -3.1850 hc         1 9R0       0.064450
     54 H16         -1.2770    -1.1570    -1.3840 h1         1 9R0       0.060700
     55 H17         -1.9940    -2.5060    -2.2720 h1         1 9R0       0.060700
     56 H18         -0.9640    -3.8000     1.2620 h1         1 9R0       0.049200
     57 H19         -2.2710    -4.6980     0.4750 h1         1 9R0       0.049200
     58 H20         -1.0440    -4.9200    -1.5710 hc         1 9R0       0.051200
     59 H21          0.3030    -4.9500    -0.4290 hc         1 9R0       0.051200
     60 H22         -4.6400     1.6420     0.1310 ha         1 9R0       0.104000
     61 H23         -6.0450     2.4260     1.9990 ha         1 9R0       0.134000
     62 H24         -5.2260    -1.1410     4.2120 ha         1 9R0       0.140000
@<TRIPOS>BOND
     1     1     2 ar  
     2     1     6 ar  
     3     1    39 1   
     4     2     3 ar  
     5     2    37 1   
     6     3     4 ar  
     7     3     7 1   
     8     4     5 ar  
     9     4    38 1   
    10     5     6 ar  
    11     5    40 1   
    12     6    41 1   
    13     7     8 2   
    14     7    11 1   
    15     8     9 1   
    16     9    10 1   
    17    10    11 2   
    18    10    12 1   
    19    11    15 1   
    20    12    13 1   
    21    12    14 1   
    22    12    42 1   
    23    13    14 1   
    24    13    43 1   
    25    13    44 1   
    26    14    45 1   
    27    14    46 1   
    28    15    16 1   
    29    15    47 1   
    30    15    48 1   
    31    16    17 1   
    32    17    18 1   
    33    17    20 1   
    34    17    49 1   
    35    18    19 1   
    36    18    50 1   
    37    18    51 1   
    38    19    20 1   
    39    19    21 1   
    40    19    24 1   
    41    20    52 1   
    42    20    53 1   
    43    21    22 1   
    44    21    54 1   
    45    21    55 1   
    46    22    23 1   
    47    22    25 1   
    48    23    24 1   
    49    23    56 1   
    50    23    57 1   
    51    24    58 1   
    52    24    59 1   
    53    25    26 2   
    54    25    29 1   
    55    26    27 1   
    56    27    28 ar  
    57    27    30 ar  
    58    28    29 1   
    59    28    33 ar  
    60    30    31 ar  
    61    30    60 1   
    62    31    32 ar  
    63    31    61 1   
    64    32    33 ar  
    65    32    34 1   
    66    33    62 1   
    67    34    35 1   
    68    34    36 1   
@<TRIPOS>SUBSTRUCTURE
     1 9R0         1 TEMP              0 ****  ****    0 ROOT
