@<TRIPOS>MOLECULE
9R0
   62    68     1     0     0
SMALL
No Charge or Current Charge


@<TRIPOS>ATOM
      1 C1           0.6050     0.7790     1.8670 ca         1 9R0      -0.104000
      2 C2           1.7260     0.9600     1.0400 ca         1 9R0       0.140500
      3 C3           1.5720     1.4030    -0.2960 ca         1 9R0      -0.139500
      4 C4           0.2700     1.7180    -0.7550 ca         1 9R0       0.140500
      5 C5          -0.8470     1.5280     0.0770 ca         1 9R0      -0.104000
      6 C6          -0.6840     1.0510     1.3850 ca         1 9R0      -0.065000
      7 C7           2.7290     1.5700    -1.1820 cc         1 9R0       0.352500
      8 N1           3.0480     2.7600    -1.6720 nd         1 9R0      -0.334300
      9 O1           4.2760     2.5310    -2.3770 os         1 9R0      -0.080700
     10 C8           4.6060     1.2100    -2.2460 cd         1 9R0       0.231300
     11 C9           3.6800     0.5650    -1.4930 cc         1 9R0      -0.200300
     12 C10          5.8140     0.6490    -2.9160 cx         1 9R0      -0.187000
     13 C11          7.1290     1.3970    -2.8930 cx         1 9R0      -0.109900
     14 C12          6.3620     1.2600    -4.1870 cx         1 9R0      -0.109900
     15 C13          3.5640    -0.8960    -1.1600 c3         1 9R0       0.242900
     16 O2           2.7660    -1.5040    -2.1890 os         1 9R0      -0.440000
     17 C14          1.8410    -2.5080    -1.7700 cy         1 9R0       0.148300
     18 C15          0.6390    -1.9880    -0.9280 cy         1 9R0      -0.092400
     19 C16         -0.2180    -3.1130    -1.6070 cy         1 9R0      -0.090000
     20 C17          0.7700    -2.9360    -2.8200 cy         1 9R0      -0.092400
     21 C18         -1.7270    -2.8470    -1.7820 c5         1 9R0       0.246800
     22 N2          -2.3530    -3.2780    -0.5080 nh         1 9R0      -0.757600
     23 C19         -1.4040    -4.1580     0.2260 c5         1 9R0       0.231800
     24 C20         -0.3530    -4.4850    -0.8800 c5         1 9R0      -0.078400
     25 C21         -2.9420    -2.2760     0.2590 cc         1 9R0       0.640100
     26 N3          -3.5030    -1.2020    -0.3110 nd         1 9R0      -0.649100
     27 C22         -4.0140    -0.3980     0.6970 ca         1 9R0       0.101400
     28 C23         -3.8810    -0.8650     1.9850 ca         1 9R0      -0.189000
     29 S1          -3.0870    -2.4250     2.0380 ss         1 9R0      -0.098200
     30 C24         -4.6340     0.8370     0.4680 ca         1 9R0      -0.122000
     31 C25         -5.1080     1.5910     1.5600 ca         1 9R0      -0.072000
     32 C26         -4.9690     1.1120     2.8900 ca         1 9R0      -0.132600
     33 C27         -4.3430    -0.1420     3.0950 ca         1 9R0      -0.046000
     34 C28         -5.4800     1.9240     4.0670 c          1 9R0       0.711600
     35 O3          -6.0190     2.9990     3.8470 o          1 9R0      -0.717000
     36 O4          -5.3360     1.4730     5.1950 o          1 9R0      -0.717000
     37 Cl1          3.3210     0.7480     1.7680 cl         1 9R0      -0.193000
     38 Cl2         -0.0220     2.2450    -2.4130 cl         1 9R0      -0.193000
     39 H1           0.7390     0.4450     2.8930 ha         1 9R0       0.147500
     40 H2          -1.8440     1.7420    -0.3010 ha         1 9R0       0.147500
     41 H3          -1.5520     0.9090     2.0270 ha         1 9R0       0.155000
     42 H4           5.8740    -0.4340    -2.8420 hc         1 9R0       0.095700
     43 H5           7.1550     2.3770    -2.4210 hc         1 9R0       0.079700
     44 H6           8.0410     0.8160    -2.7800 hc         1 9R0       0.079700
     45 H7           6.7600     0.5860    -4.9430 hc         1 9R0       0.079700
     46 H8           5.8780     2.1490    -4.5850 hc         1 9R0       0.079700
     47 H9           4.5580    -1.3600    -1.1170 h1         1 9R0       0.034700
     48 H10          3.0960    -1.0270    -0.1800 h1         1 9R0       0.034700
     49 H11          2.3700    -3.3530    -1.3120 h1         1 9R0       0.035700
     50 H12          0.7550    -2.0500     0.1590 hc         1 9R0       0.064450
     51 H13          0.3170    -0.9750    -1.1840 hc         1 9R0       0.064450
     52 H14          0.4890    -2.1430    -3.5240 hc         1 9R0       0.064450
     53 H15          0.9990    -3.8420    -3.3900 hc         1 9R0       0.064450
     54 H16         -1.9120    -1.7970    -2.0460 h1         1 9R0       0.060700
     55 H17         -2.1440    -3.4350    -2.6110 h1         1 9R0       0.060700
     56 H18         -0.9110    -3.6430     1.0630 h1         1 9R0       0.049200
     57 H19         -1.8880    -5.0660     0.6130 h1         1 9R0       0.049200
     58 H20         -0.7180    -5.2730    -1.5510 hc         1 9R0       0.051200
     59 H21          0.5860    -4.8480    -0.4490 hc         1 9R0       0.051200
     60 H22         -4.7440     1.2140    -0.5460 ha         1 9R0       0.104000
     61 H23         -5.5850     2.5500     1.3700 ha         1 9R0       0.134000
     62 H24         -4.2180    -0.5480     4.0970 ha         1 9R0       0.140000
@<TRIPOS>BOND
     1     1     2 ar  
     2     1     6 ar  
     3     1    39 1   
     4     2     3 ar  
     5     2    37 1   
     6     3     4 ar  
     7     3     7 1   
     8     4     5 ar  
     9     4    38 1   
    10     5     6 ar  
    11     5    40 1   
    12     6    41 1   
    13     7     8 2   
    14     7    11 1   
    15     8     9 1   
    16     9    10 1   
    17    10    11 2   
    18    10    12 1   
    19    11    15 1   
    20    12    13 1   
    21    12    14 1   
    22    12    42 1   
    23    13    14 1   
    24    13    43 1   
    25    13    44 1   
    26    14    45 1   
    27    14    46 1   
    28    15    16 1   
    29    15    47 1   
    30    15    48 1   
    31    16    17 1   
    32    17    18 1   
    33    17    20 1   
    34    17    49 1   
    35    18    19 1   
    36    18    50 1   
    37    18    51 1   
    38    19    20 1   
    39    19    21 1   
    40    19    24 1   
    41    20    52 1   
    42    20    53 1   
    43    21    22 1   
    44    21    54 1   
    45    21    55 1   
    46    22    23 1   
    47    22    25 1   
    48    23    24 1   
    49    23    56 1   
    50    23    57 1   
    51    24    58 1   
    52    24    59 1   
    53    25    26 2   
    54    25    29 1   
    55    26    27 1   
    56    27    28 ar  
    57    27    30 ar  
    58    28    29 1   
    59    28    33 ar  
    60    30    31 ar  
    61    30    60 1   
    62    31    32 ar  
    63    31    61 1   
    64    32    33 ar  
    65    32    34 1   
    66    33    62 1   
    67    34    35 1   
    68    34    36 1   
@<TRIPOS>SUBSTRUCTURE
     1 9R0         1 TEMP              0 ****  ****    0 ROOT
