@<TRIPOS>MOLECULE
9R1
   26    25     1     0     0
SMALL
bcc


@<TRIPOS>ATOM
      1 N          -22.4160    17.3650     7.9470 n8         1 9R1      -0.858800
      2 CA         -21.2220    18.2090     7.9340 c3         1 9R1       0.017500
      3 C          -20.1790    17.6690     6.9240 c          1 9R1       0.931600
      4 O          -19.7030    18.4980     6.1200 o          1 9R1      -0.840300
      5 CB         -20.6370    18.2360     9.3450 c3         1 9R1      -0.049400
      6 CG         -19.4090    19.1270     9.5030 c3         1 9R1      -0.071400
      7 CD         -19.0090    19.3690    10.9570 c3         1 9R1      -0.067400
      8 CE         -18.5830    18.1150    11.7120 c3         1 9R1      -0.047400
      9 CZ         -18.2190    18.3820    13.1660 c3         1 9R1      -0.202400
     10 CN         -16.9430    19.2130    13.4170 c          1 9R1       0.924600
     11 ON1        -16.0700    19.2130    12.5260 o          1 9R1      -0.859300
     12 ON2        -16.8700    19.7880    14.5240 o          1 9R1      -0.859300
     13 O1         -19.8860    16.4600     7.0060 o          1 9R1      -0.840300
     14 H1         -23.1090    17.7940     8.5490 hn         1 9R1       0.295800
     15 H2         -22.8350    17.3530     7.0240 hn         1 9R1       0.295800
     16 H4         -21.4530    19.2470     7.6500 h1         1 9R1      -0.006300
     17 H5         -21.4140    18.5850    10.0380 hc         1 9R1       0.022200
     18 H6         -20.4070    17.2090     9.6390 hc         1 9R1       0.022200
     19 H7         -18.5610    18.6910     8.9640 hc         1 9R1       0.039200
     20 H8         -19.6030    20.0930     9.0250 hc         1 9R1       0.039200
     21 H9         -18.1900    20.0910    10.9850 hc         1 9R1       0.026700
     22 H10        -19.8490    19.8380    11.4830 hc         1 9R1       0.026700
     23 H11        -19.3940    17.3810    11.6830 hc         1 9R1       0.023700
     24 H12        -17.7360    17.6530    11.1980 hc         1 9R1       0.023700
     25 H13        -19.0630    18.8570    13.6770 hc         1 9R1       0.005700
     26 H14        -18.0780    17.4220    13.6790 hc         1 9R1       0.005700
@<TRIPOS>BOND
     1     1     2 1   
     2     1    14 1   
     3     1    15 1   
     4     2     3 1   
     5     2     5 1   
     6     2    16 1   
     7     3     4 1   
     8     3    13 1   
     9     5     6 1   
    10     5    17 1   
    11     5    18 1   
    12     6     7 1   
    13     6    19 1   
    14     6    20 1   
    15     7     8 1   
    16     7    21 1   
    17     7    22 1   
    18     8     9 1   
    19     8    23 1   
    20     8    24 1   
    21     9    10 1   
    22     9    25 1   
    23     9    26 1   
    24    10    11 1   
    25    10    12 1   
@<TRIPOS>SUBSTRUCTURE
     1 9R1         1 TEMP              0 ****  ****    0 ROOT
