@<TRIPOS>MOLECULE
9R2
   71    71     1     0     0
SMALL
abcg2


@<TRIPOS>ATOM
      1 CAQ         15.7980     0.6270     0.2950 c3         1 9R2      -0.088100
      2 CAP         14.5510    -0.2260     0.1100 c3         1 9R2      -0.075400
      3 CAO         13.2610     0.5780     0.2180 c3         1 9R2      -0.075400
      4 CAN         12.0070    -0.2670     0.0380 c3         1 9R2      -0.074400
      5 CAM         10.7160     0.5340     0.1530 c3         1 9R2      -0.074400
      6 CAL          9.4650    -0.3130    -0.0400 c3         1 9R2      -0.074400
      7 CAK          8.1700     0.4800     0.0770 c3         1 9R2      -0.073400
      8 CAJ          6.9250    -0.3740    -0.1210 c3         1 9R2      -0.074400
      9 CAI          5.6240     0.4100    -0.0060 c3         1 9R2      -0.073400
     10 CAH          4.3870    -0.4550    -0.2120 c3         1 9R2      -0.075400
     11 CAG          3.0770     0.3160    -0.1020 c3         1 9R2      -0.073400
     12 CAF          1.8530    -0.5620    -0.3230 c3         1 9R2      -0.075400
     13 CAE          0.5330     0.1890    -0.2050 c3         1 9R2      -0.074400
     14 CAD         -0.6710    -0.7090    -0.4590 c3         1 9R2      -0.069400
     15 CAC         -1.9910     0.0330    -0.3150 c3         1 9R2      -0.136400
     16 CAB         -3.1900    -0.8280    -0.6040 c          1 9R2       0.593100
     17 OAA         -3.1630    -1.8740    -1.2040 o          1 9R2      -0.490000
     18 O6          -4.3100    -0.2910    -0.1320 os         1 9R2      -0.445100
     19 C6          -5.5320    -0.9920    -0.3740 c3         1 9R2       0.172600
     20 C5          -6.6400    -0.2280     0.3160 c6         1 9R2       0.171300
     21 O5          -6.7160     1.0440    -0.2980 os         1 9R2      -0.464000
     22 C1          -7.7060     1.9020     0.2030 c6         1 9R2       0.352300
     23 O1          -7.5110     2.2270     1.5420 oh         1 9R2      -0.740000
     24 C2          -9.0940     1.2670     0.0720 c6         1 9R2       0.122300
     25 O2          -9.4230     1.0830    -1.2810 oh         1 9R2      -0.690000
     26 C3          -9.0910    -0.0990     0.7540 c6         1 9R2       0.144300
     27 O3         -10.3010    -0.7960     0.5730 oh         1 9R2      -0.711000
     28 C4          -7.9720    -0.9720     0.1960 c6         1 9R2       0.148300
     29 O4          -7.8480    -2.1730     0.9200 oh         1 9R2      -0.723000
     30 HA6         15.8580     1.4100    -0.4640 hc         1 9R2       0.031367
     31 HA4         15.7970     1.1170     1.2710 hc         1 9R2       0.031367
     32 HA5         16.7090     0.0310     0.2270 hc         1 9R2       0.031367
     33 HA2         14.5860    -0.7240    -0.8640 hc         1 9R2       0.036700
     34 HA3         14.5420    -1.0260     0.8570 hc         1 9R2       0.036700
     35 HA1         13.2280     1.0750     1.1940 hc         1 9R2       0.036700
     36 HA0         13.2710     1.3800    -0.5290 hc         1 9R2       0.036700
     37 HAZ         12.0390    -0.7620    -0.9400 hc         1 9R2       0.036700
     38 HAY         12.0010    -1.0710     0.7830 hc         1 9R2       0.036700
     39 HAX         10.6780     1.0200     1.1350 hc         1 9R2       0.036700
     40 HAW         10.7240     1.3440    -0.5850 hc         1 9R2       0.036700
     41 HAV          9.5030    -0.7980    -1.0230 hc         1 9R2       0.036700
     42 HAU          9.4600    -1.1250     0.6960 hc         1 9R2       0.036700
     43 HAT          8.1280     0.9630     1.0600 hc         1 9R2       0.036700
     44 HAS          8.1750     1.2930    -0.6580 hc         1 9R2       0.036700
     45 HAR          6.9690    -0.8560    -1.1040 hc         1 9R2       0.037700
     46 HAQ          6.9230    -1.1880     0.6130 hc         1 9R2       0.037700
     47 HAP          5.5740     0.8890     0.9780 hc         1 9R2       0.036700
     48 HAO          5.6250     1.2240    -0.7400 hc         1 9R2       0.036700
     49 HAN          4.4400    -0.9360    -1.1960 hc         1 9R2       0.037700
     50 HAM          4.3890    -1.2700     0.5210 hc         1 9R2       0.037700
     51 HAL          3.0160     0.7890     0.8840 hc         1 9R2       0.036700
     52 HAK          3.0750     1.1330    -0.8320 hc         1 9R2       0.036700
     53 HAJ          1.9150    -1.0270    -1.3140 hc         1 9R2       0.040200
     54 HAI          1.8630    -1.3880     0.3970 hc         1 9R2       0.040200
     55 HAH          0.4580     0.6380     0.7920 hc         1 9R2       0.037200
     56 HAG          0.5220     1.0220    -0.9160 hc         1 9R2       0.037200
     57 HAF         -0.5960    -1.1380    -1.4610 hc         1 9R2       0.054200
     58 HAE         -0.6500    -1.5510     0.2400 hc         1 9R2       0.054200
     59 HAD         -2.0880     0.4650     0.6840 hc         1 9R2       0.069700
     60 HAC         -2.0240     0.8820    -1.0080 hc         1 9R2       0.069700
     61 H61         -5.7250    -1.0580    -1.4490 h1         1 9R2       0.068200
     62 H62         -5.4730    -2.0040     0.0270 h1         1 9R2       0.068200
     63 H5          -6.3950    -0.1320     1.3830 h1         1 9R2       0.067700
     64 H11         -7.6450     2.7920    -0.4360 h2         1 9R2       0.062700
     65 H12         -6.7160     2.7640     1.6240 ho         1 9R2       0.523000
     66 H21         -9.8210     1.9210     0.5740 h1         1 9R2       0.047700
     67 H22         -9.5620     1.9460    -1.6830 ho         1 9R2       0.503000
     68 H31         -8.8910     0.0590     1.8220 h1         1 9R2       0.061700
     69 H32        -10.9600    -0.4310     1.1710 ho         1 9R2       0.508000
     70 H41         -8.1720    -1.1730    -0.8670 h1         1 9R2       0.071700
     71 H42         -8.6800    -2.6520     0.8480 ho         1 9R2       0.524000
@<TRIPOS>BOND
     1     1     2 1   
     2     1    30 1   
     3     1    31 1   
     4     1    32 1   
     5     2     3 1   
     6     2    33 1   
     7     2    34 1   
     8     3     4 1   
     9     3    35 1   
    10     3    36 1   
    11     4     5 1   
    12     4    37 1   
    13     4    38 1   
    14     5     6 1   
    15     5    39 1   
    16     5    40 1   
    17     6     7 1   
    18     6    41 1   
    19     6    42 1   
    20     7     8 1   
    21     7    43 1   
    22     7    44 1   
    23     8     9 1   
    24     8    45 1   
    25     8    46 1   
    26     9    10 1   
    27     9    47 1   
    28     9    48 1   
    29    10    11 1   
    30    10    49 1   
    31    10    50 1   
    32    11    12 1   
    33    11    51 1   
    34    11    52 1   
    35    12    13 1   
    36    12    53 1   
    37    12    54 1   
    38    13    14 1   
    39    13    55 1   
    40    13    56 1   
    41    14    15 1   
    42    14    57 1   
    43    14    58 1   
    44    15    16 1   
    45    15    59 1   
    46    15    60 1   
    47    16    17 2   
    48    16    18 1   
    49    18    19 1   
    50    19    20 1   
    51    19    61 1   
    52    19    62 1   
    53    20    21 1   
    54    20    28 1   
    55    20    63 1   
    56    21    22 1   
    57    22    23 1   
    58    22    24 1   
    59    22    64 1   
    60    23    65 1   
    61    24    25 1   
    62    24    26 1   
    63    24    66 1   
    64    25    67 1   
    65    26    27 1   
    66    26    28 1   
    67    26    68 1   
    68    27    69 1   
    69    28    29 1   
    70    28    70 1   
    71    29    71 1   
@<TRIPOS>SUBSTRUCTURE
     1 9R2         1 TEMP              0 ****  ****    0 ROOT
