@<TRIPOS>MOLECULE
9R2
   71    71     1     0     0
SMALL
No Charge or Current Charge


@<TRIPOS>ATOM
      1 CAQ         15.4580     0.3040     1.3620 c3         1 9R2      -0.088100
      2 CAP         14.1320    -0.4800     1.3370 c3         1 9R2      -0.075400
      3 CAO         12.9400     0.3650     0.8350 c3         1 9R2      -0.075400
      4 CAN         11.6100    -0.4210     0.8100 c3         1 9R2      -0.074400
      5 CAM         10.4190     0.4230     0.3090 c3         1 9R2      -0.074400
      6 CAL          9.0890    -0.3630     0.2830 c3         1 9R2      -0.074400
      7 CAK          7.8970     0.4820    -0.2180 c3         1 9R2      -0.073400
      8 CAJ          6.5680    -0.3040    -0.2440 c3         1 9R2      -0.074400
      9 CAI          5.3760     0.5410    -0.7450 c3         1 9R2      -0.073400
     10 CAH          4.0470    -0.2460    -0.7710 c3         1 9R2      -0.075400
     11 CAG          2.8550     0.5990    -1.2720 c3         1 9R2      -0.073400
     12 CAF          1.5260    -0.1870    -1.2980 c3         1 9R2      -0.075400
     13 CAE          0.3340     0.6570    -1.8000 c3         1 9R2      -0.074400
     14 CAD         -0.9950    -0.1300    -1.8260 c3         1 9R2      -0.069400
     15 CAC         -2.1880     0.7160    -2.3300 c3         1 9R2      -0.136400
     16 CAB         -3.4850    -0.0970    -2.3320 c          1 9R2       0.593100
     17 OAA         -3.8230    -0.8330    -3.2500 o          1 9R2      -0.490000
     18 O6          -4.1870     0.0610    -1.1680 os         1 9R2      -0.445100
     19 C6          -5.4260    -0.6660    -1.0220 c3         1 9R2       0.172600
     20 C5          -6.0730    -0.3270     0.3520 c6         1 9R2       0.171300
     21 O5          -6.4840     1.0720     0.3140 os         1 9R2      -0.464000
     22 C1          -7.0740     1.5750     1.5270 c6         1 9R2       0.352300
     23 O1          -6.0690     1.5200     2.5330 oh         1 9R2      -0.740000
     24 C2          -8.3550     0.7440     1.9140 c6         1 9R2       0.122300
     25 O2          -9.4380     0.9070     0.9610 oh         1 9R2      -0.690000
     26 C3          -7.9850    -0.7680     1.9880 c6         1 9R2       0.144300
     27 O3          -9.1740    -1.5440     2.2310 oh         1 9R2      -0.711000
     28 C4          -7.3050    -1.2330     0.6620 c6         1 9R2       0.148300
     29 O4          -6.9460    -2.6250     0.7660 oh         1 9R2      -0.723000
     30 HA6         15.7200     0.6570     0.3580 hc         1 9R2       0.031367
     31 HA4         15.3830     1.1730     2.0270 hc         1 9R2       0.031367
     32 HA5         16.2730    -0.3350     1.7240 hc         1 9R2       0.031367
     33 HA2         14.2500    -1.3600     0.6930 hc         1 9R2       0.036700
     34 HA3         13.9170    -0.8490     2.3470 hc         1 9R2       0.036700
     35 HA1         12.8260     1.2450     1.4810 hc         1 9R2       0.036700
     36 HA0         13.1590     0.7340    -0.1740 hc         1 9R2       0.036700
     37 HAZ         11.7250    -1.3010     0.1650 hc         1 9R2       0.036700
     38 HAY         11.3910    -0.7900     1.8200 hc         1 9R2       0.036700
     39 HAX         10.3040     1.3040     0.9540 hc         1 9R2       0.036700
     40 HAW         10.6380     0.7920    -0.7010 hc         1 9R2       0.036700
     41 HAV          9.2040    -1.2430    -0.3620 hc         1 9R2       0.036700
     42 HAU          8.8700    -0.7320     1.2930 hc         1 9R2       0.036700
     43 HAT          7.7830     1.3620     0.4270 hc         1 9R2       0.036700
     44 HAS          8.1170     0.8510    -1.2280 hc         1 9R2       0.036700
     45 HAR          6.6830    -1.1840    -0.8890 hc         1 9R2       0.037700
     46 HAQ          6.3490    -0.6730     0.7660 hc         1 9R2       0.037700
     47 HAP          5.2620     1.4210    -0.1000 hc         1 9R2       0.036700
     48 HAO          5.5960     0.9100    -1.7550 hc         1 9R2       0.036700
     49 HAN          4.1620    -1.1260    -1.4160 hc         1 9R2       0.037700
     50 HAM          3.8270    -0.6150     0.2390 hc         1 9R2       0.037700
     51 HAL          2.7400     1.4790    -0.6270 hc         1 9R2       0.036700
     52 HAK          3.0750     0.9680    -2.2820 hc         1 9R2       0.036700
     53 HAJ          1.6410    -1.0680    -1.9430 hc         1 9R2       0.040200
     54 HAI          1.3060    -0.5560    -0.2880 hc         1 9R2       0.040200
     55 HAH          0.2200     1.5370    -1.1550 hc         1 9R2       0.037200
     56 HAG          0.5540     1.0260    -2.8100 hc         1 9R2       0.037200
     57 HAF         -0.8800    -1.0110    -2.4700 hc         1 9R2       0.054200
     58 HAE         -1.2160    -0.4990    -0.8160 hc         1 9R2       0.054200
     59 HAD         -2.3010     1.5670    -1.6480 hc         1 9R2       0.069700
     60 HAC         -1.9790     1.0610    -3.3490 hc         1 9R2       0.069700
     61 H61         -6.1340    -0.4070    -1.8210 h1         1 9R2       0.068200
     62 H62         -5.2390    -1.7470    -1.0700 h1         1 9R2       0.068200
     63 H5          -5.3110    -0.4700     1.1310 h1         1 9R2       0.067700
     64 H11         -7.3700     2.6250     1.3700 h2         1 9R2       0.062700
     65 H12         -5.3030     2.0030     2.1480 ho         1 9R2       0.523000
     66 H21         -8.6860     1.0720     2.9110 h1         1 9R2       0.047700
     67 H22         -9.6480     1.8690     0.9120 ho         1 9R2       0.503000
     68 H31         -7.2700    -0.9090     2.8120 h1         1 9R2       0.061700
     69 H32         -9.8900    -1.0140     1.8000 ho         1 9R2       0.508000
     70 H41         -8.0280    -1.1000    -0.1580 h1         1 9R2       0.071700
     71 H42         -7.6830    -3.0360     1.2810 ho         1 9R2       0.524000
@<TRIPOS>BOND
     1     1     2 1   
     2     1    30 1   
     3     1    31 1   
     4     1    32 1   
     5     2     3 1   
     6     2    33 1   
     7     2    34 1   
     8     3     4 1   
     9     3    35 1   
    10     3    36 1   
    11     4     5 1   
    12     4    37 1   
    13     4    38 1   
    14     5     6 1   
    15     5    39 1   
    16     5    40 1   
    17     6     7 1   
    18     6    41 1   
    19     6    42 1   
    20     7     8 1   
    21     7    43 1   
    22     7    44 1   
    23     8     9 1   
    24     8    45 1   
    25     8    46 1   
    26     9    10 1   
    27     9    47 1   
    28     9    48 1   
    29    10    11 1   
    30    10    49 1   
    31    10    50 1   
    32    11    12 1   
    33    11    51 1   
    34    11    52 1   
    35    12    13 1   
    36    12    53 1   
    37    12    54 1   
    38    13    14 1   
    39    13    55 1   
    40    13    56 1   
    41    14    15 1   
    42    14    57 1   
    43    14    58 1   
    44    15    16 1   
    45    15    59 1   
    46    15    60 1   
    47    16    17 2   
    48    16    18 1   
    49    18    19 1   
    50    19    20 1   
    51    19    61 1   
    52    19    62 1   
    53    20    21 1   
    54    20    28 1   
    55    20    63 1   
    56    21    22 1   
    57    22    23 1   
    58    22    24 1   
    59    22    64 1   
    60    23    65 1   
    61    24    25 1   
    62    24    26 1   
    63    24    66 1   
    64    25    67 1   
    65    26    27 1   
    66    26    28 1   
    67    26    68 1   
    68    27    69 1   
    69    28    29 1   
    70    28    70 1   
    71    29    71 1   
@<TRIPOS>SUBSTRUCTURE
     1 9R2         1 TEMP              0 ****  ****    0 ROOT
