@<TRIPOS>MOLECULE
9R3
   65    71     1     0     0
SMALL
bcc


@<TRIPOS>ATOM
      1 O4          -9.9940    -2.5420    -0.3770 o          1 9R3      -0.823300
      2 C29         -9.2870    -1.8480     0.3790 c          1 9R3       0.923200
      3 O3          -9.6680    -1.2260     1.3900 o          1 9R3      -0.823300
      4 C27         -7.8090    -1.7520     0.0360 ca         1 9R3      -0.131600
      5 C26         -7.2870    -2.4160    -1.0810 ca         1 9R3      -0.092000
      6 C25         -5.9460    -2.3480    -1.4160 ca         1 9R3      -0.132000
      7 C23         -5.0800    -1.5990    -0.6200 ca         1 9R3       0.106400
      8 N3          -3.7340    -1.4420    -0.8230 nc         1 9R3      -0.639100
      9 C28         -6.9510    -1.0010     0.8350 ca         1 9R3      -0.066000
     10 C24         -5.6110    -0.9350     0.4980 ca         1 9R3      -0.060100
     11 S1          -4.3300    -0.0830     1.3140 ss         1 9R3      -0.231100
     12 C21         -3.2060    -0.6740     0.0800 cd         1 9R3       0.634100
     13 N2          -1.9180    -0.3060     0.1110 nh         1 9R3      -0.748600
     14 C16         -1.3460     0.4370     1.2180 c6         1 9R3       0.235300
     15 C18         -0.9800    -0.8890    -0.8390 c6         1 9R3       0.235300
     16 C17          0.0850     0.1090    -1.2860 c6         1 9R3      -0.083200
     17 C20         -0.4590     1.2390    -2.1660 c6         1 9R3      -0.055900
     18 C22         -1.3990     2.1890    -1.4240 c6         1 9R3      -0.068400
     19 C19         -0.8450     2.6020    -0.0600 c6         1 9R3      -0.055900
     20 C14         -0.2850     1.4340     0.7550 c6         1 9R3      -0.083200
     21 C15          0.7670     0.6630    -0.0420 c6         1 9R3       0.149100
     22 O2           1.8660     1.4480    -0.4410 os         1 9R3      -0.400600
     23 C6           2.7200     1.8770     0.6000 c3         1 9R3       0.218700
     24 C2           4.1200     1.4710     0.3000 cc         1 9R3      -0.337900
     25 C1           5.2340     2.2160     0.0810 cd         1 9R3       0.340000
     26 C4           5.4670     3.6570     0.0490 cx         1 9R3      -0.189000
     27 C8           6.5250     4.2530    -0.8430 cx         1 9R3      -0.108900
     28 C7           6.7250     4.2520     0.6310 cx         1 9R3      -0.108900
     29 O1           6.2700     1.3990    -0.1390 os         1 9R3      -0.122100
     30 C3           4.5960     0.1400     0.1810 cc         1 9R3       0.405800
     31 N1           5.8670     0.0980    -0.0790 nd         1 9R3      -0.336300
     32 C5           3.7800    -1.0770     0.3100 ca         1 9R3      -0.122500
     33 C13          3.2640    -1.7270    -0.8090 ca         1 9R3       0.053900
     34 CL1          3.6550    -1.1400    -2.3840 cl         1 9R3      -0.087900
     35 C12          2.4200    -2.8190    -0.6930 ca         1 9R3      -0.126500
     36 C11          2.0820    -3.2800     0.5700 ca         1 9R3      -0.100000
     37 C10          2.5810    -2.6630     1.7060 ca         1 9R3      -0.126500
     38 C9           3.4220    -1.5730     1.5620 ca         1 9R3       0.053900
     39 CL2          4.0320    -0.7910     2.9780 cl         1 9R3      -0.087900
     40 H2          -7.9560    -2.9990    -1.6990 ha         1 9R3       0.150000
     41 H3          -5.5630    -2.8670    -2.2860 ha         1 9R3       0.122000
     42 H4          -7.3350    -0.4820     1.7030 ha         1 9R3       0.157000
     43 H5          -2.1290     0.9870     1.7430 h1         1 9R3       0.050700
     44 H6          -0.9010    -0.2560     1.9430 h1         1 9R3       0.050700
     45 H7          -0.4900    -1.7560    -0.3780 h1         1 9R3       0.050700
     46 H8          -1.5370    -1.2540    -1.6990 h1         1 9R3       0.050700
     47 H9           0.8120    -0.4670    -1.8670 hc         1 9R3       0.051200
     48 H10          0.3900     1.8030    -2.5590 hc         1 9R3       0.039950
     49 H11         -0.9680     0.8100    -3.0330 hc         1 9R3       0.039950
     50 H12         -1.5610     3.0830    -2.0310 hc         1 9R3       0.047700
     51 H13         -2.3820     1.7300    -1.3080 hc         1 9R3       0.047700
     52 H14         -0.0440     3.3320    -0.2030 hc         1 9R3       0.039950
     53 H15         -1.6170     3.1150     0.5190 hc         1 9R3       0.039950
     54 H16          0.1590     1.8320     1.6740 hc         1 9R3       0.051200
     55 H17          1.1260    -0.1820     0.5710 h1         1 9R3       0.031700
     56 H18          2.6530     2.9630     0.7210 h1         1 9R3       0.042700
     57 H19          2.4210     1.4420     1.5610 h1         1 9R3       0.042700
     58 H20          4.5610     4.2380     0.1740 hc         1 9R3       0.099700
     59 H21          7.1220     3.5800    -1.4450 hc         1 9R3       0.080200
     60 H22          6.2740     5.1870    -1.3290 hc         1 9R3       0.080200
     61 H23          6.6150     5.1830     1.1700 hc         1 9R3       0.080200
     62 H24          7.4580     3.5750     1.0510 hc         1 9R3       0.080200
     63 H25          2.0270    -3.3010    -1.5770 ha         1 9R3       0.156000
     64 H26          1.4200    -4.1290     0.6690 ha         1 9R3       0.148000
     65 H27          2.3190    -3.0250     2.6910 ha         1 9R3       0.156000
@<TRIPOS>BOND
     1     1     2 1   
     2     2     3 1   
     3     2     4 1   
     4     4     5 ar  
     5     4     9 ar  
     6     5     6 ar  
     7     5    40 1   
     8     6     7 ar  
     9     6    41 1   
    10     7     8 1   
    11     7    10 ar  
    12     8    12 2   
    13     9    10 ar  
    14     9    42 1   
    15    10    11 1   
    16    11    12 1   
    17    12    13 1   
    18    13    14 1   
    19    13    15 1   
    20    14    20 1   
    21    14    43 1   
    22    14    44 1   
    23    15    16 1   
    24    15    45 1   
    25    15    46 1   
    26    16    17 1   
    27    16    21 1   
    28    16    47 1   
    29    17    18 1   
    30    17    48 1   
    31    17    49 1   
    32    18    19 1   
    33    18    50 1   
    34    18    51 1   
    35    19    20 1   
    36    19    52 1   
    37    19    53 1   
    38    20    21 1   
    39    20    54 1   
    40    21    22 1   
    41    21    55 1   
    42    22    23 1   
    43    23    24 1   
    44    23    56 1   
    45    23    57 1   
    46    24    25 2   
    47    24    30 1   
    48    25    26 1   
    49    25    29 1   
    50    26    27 1   
    51    26    28 1   
    52    26    58 1   
    53    27    28 1   
    54    27    59 1   
    55    27    60 1   
    56    28    61 1   
    57    28    62 1   
    58    29    31 1   
    59    30    31 2   
    60    30    32 1   
    61    32    33 ar  
    62    32    38 ar  
    63    33    34 1   
    64    33    35 ar  
    65    35    36 ar  
    66    35    63 1   
    67    36    37 ar  
    68    36    64 1   
    69    37    38 ar  
    70    37    65 1   
    71    38    39 1   
@<TRIPOS>SUBSTRUCTURE
     1 9R3         1 TEMP              0 ****  ****    0 ROOT
