@<TRIPOS>MOLECULE
9R3
   65    71     1     0     0
SMALL
No Charge or Current Charge


@<TRIPOS>ATOM
      1 O4         -10.5690    -1.7790     0.2450 o          1 9R3      -0.718000
      2 C29         -9.8230    -0.8510     0.5280 c          1 9R3       0.712600
      3 O3         -10.2320     0.2260     0.9390 o          1 9R3      -0.718000
      4 C27         -8.3260    -1.0450     0.3630 ca         1 9R3      -0.131600
      5 C26         -7.7990    -2.2760    -0.1100 ca         1 9R3      -0.074000
      6 C25         -6.4090    -2.4570    -0.2640 ca         1 9R3      -0.114000
      7 C23         -5.5290    -1.4110     0.0530 ca         1 9R3       0.106400
      8 N3          -4.1460    -1.5070    -0.0700 nc         1 9R3      -0.639100
      9 C28         -7.4230    -0.0010     0.6770 ca         1 9R3      -0.048000
     10 C24         -6.0460    -0.2130     0.5130 ca         1 9R3      -0.187000
     11 S1          -4.7860     0.9570     0.8500 ss         1 9R3      -0.104200
     12 C21         -3.6590    -0.3240     0.3190 cd         1 9R3       0.634100
     13 N2          -2.2710    -0.1070     0.3120 nh         1 9R3      -0.748600
     14 C16         -1.6850     1.1130     0.9520 c6         1 9R3       0.235300
     15 C18         -1.3230    -1.2370     0.0450 c6         1 9R3       0.235300
     16 C17          0.0660    -0.7880    -0.4900 c6         1 9R3      -0.083200
     17 C20          0.0210    -0.2680    -1.9630 c6         1 9R3      -0.055900
     18 C22         -0.7550     1.0690    -2.1150 c6         1 9R3      -0.068400
     19 C19         -0.3370     2.1090    -1.0400 c6         1 9R3      -0.055900
     20 C14         -0.2840     1.5130     0.4050 c6         1 9R3      -0.083200
     21 C15          0.6520     0.2820     0.4540 c6         1 9R3       0.172300
     22 O2           2.0000     0.5960     0.0570 os         1 9R3      -0.447000
     23 C6           2.7970     1.3950     0.9430 c3         1 9R3       0.241900
     24 C2           4.2030     1.4330     0.4010 cc         1 9R3      -0.207300
     25 C1           5.1100     2.4420     0.4600 cd         1 9R3       0.230300
     26 C4           4.9860     3.7620     1.1390 cx         1 9R3      -0.189000
     27 C8           5.4110     5.0340     0.4380 cx         1 9R3      -0.108900
     28 C7           6.2080     4.5200     1.6140 cx         1 9R3      -0.108900
     29 O1           6.2410     2.1090    -0.2330 os         1 9R3      -0.077700
     30 C3           4.8430     0.4440    -0.3960 cc         1 9R3       0.340500
     31 N1           6.0620     0.7980    -0.7810 nd         1 9R3      -0.336300
     32 C5           4.3350    -0.9060    -0.6740 ca         1 9R3      -0.122500
     33 C13          4.2350    -1.3700    -2.0080 ca         1 9R3       0.145500
     34 Cl1          4.6490    -0.3410    -3.3820 cl         1 9R3      -0.179500
     35 C12          3.7180    -2.6470    -2.2850 ca         1 9R3      -0.108500
     36 C11          3.3120    -3.4900    -1.2410 ca         1 9R3      -0.082000
     37 C10          3.4350    -3.0560     0.0860 ca         1 9R3      -0.108500
     38 C9           3.9450    -1.7780     0.3730 ca         1 9R3       0.145500
     39 Cl2          4.1990    -1.3700     2.0700 cl         1 9R3      -0.179500
     40 H2          -8.4660    -3.0980    -0.3600 ha         1 9R3       0.132000
     41 H3          -6.0200    -3.4040    -0.6270 ha         1 9R3       0.104000
     42 H4          -7.7840     0.9590     1.0430 ha         1 9R3       0.139000
     43 H5          -2.3430     1.9830     0.8240 h1         1 9R3       0.050700
     44 H6          -1.6010     0.9400     2.0350 h1         1 9R3       0.050700
     45 H7          -1.1730    -1.8020     0.9770 h1         1 9R3       0.050700
     46 H8          -1.7450    -1.9440    -0.6840 h1         1 9R3       0.050700
     47 H9           0.7250    -1.6670    -0.4660 hc         1 9R3       0.051200
     48 H10          1.0480    -0.1280    -2.3270 hc         1 9R3       0.039950
     49 H11         -0.4250    -1.0300    -2.6170 hc         1 9R3       0.039950
     50 H12         -0.5780     1.4840    -3.1160 hc         1 9R3       0.047700
     51 H13         -1.8360     0.8860    -2.0640 hc         1 9R3       0.047700
     52 H14          0.6520     2.5100    -1.3000 hc         1 9R3       0.039950
     53 H15         -1.0240     2.9650    -1.0680 hc         1 9R3       0.039950
     54 H16          0.1070     2.2890     1.0750 hc         1 9R3       0.051200
     55 H17          0.6810    -0.1220     1.4770 h1         1 9R3       0.031700
     56 H18          2.4010     2.4160     0.9950 h1         1 9R3       0.042700
     57 H19          2.7980     0.9810     1.9590 h1         1 9R3       0.042700
     58 H20          4.1040     3.8340     1.7720 hc         1 9R3       0.099700
     59 H21          5.8570     4.9510    -0.5510 hc         1 9R3       0.080200
     60 H22          4.8030     5.9240     0.5870 hc         1 9R3       0.080200
     61 H23          6.1340     5.0640     2.5530 hc         1 9R3       0.080200
     62 H24          7.1900     4.0970     1.4130 hc         1 9R3       0.080200
     63 H25          3.6240    -2.9780    -3.3160 ha         1 9R3       0.138000
     64 H26          2.9140    -4.4800    -1.4600 ha         1 9R3       0.130000
     65 H27          3.1500    -3.7180     0.9000 ha         1 9R3       0.138000
@<TRIPOS>BOND
     1     1     2 1   
     2     2     3 1   
     3     2     4 1   
     4     4     5 ar  
     5     4     9 ar  
     6     5     6 ar  
     7     5    40 1   
     8     6     7 ar  
     9     6    41 1   
    10     7     8 1   
    11     7    10 ar  
    12     8    12 2   
    13     9    10 ar  
    14     9    42 1   
    15    10    11 1   
    16    11    12 1   
    17    12    13 1   
    18    13    14 1   
    19    13    15 1   
    20    14    20 1   
    21    14    43 1   
    22    14    44 1   
    23    15    16 1   
    24    15    45 1   
    25    15    46 1   
    26    16    17 1   
    27    16    21 1   
    28    16    47 1   
    29    17    18 1   
    30    17    48 1   
    31    17    49 1   
    32    18    19 1   
    33    18    50 1   
    34    18    51 1   
    35    19    20 1   
    36    19    52 1   
    37    19    53 1   
    38    20    21 1   
    39    20    54 1   
    40    21    22 1   
    41    21    55 1   
    42    22    23 1   
    43    23    24 1   
    44    23    56 1   
    45    23    57 1   
    46    24    25 2   
    47    24    30 1   
    48    25    26 1   
    49    25    29 1   
    50    26    27 1   
    51    26    28 1   
    52    26    58 1   
    53    27    28 1   
    54    27    59 1   
    55    27    60 1   
    56    28    61 1   
    57    28    62 1   
    58    29    31 1   
    59    30    31 2   
    60    30    32 1   
    61    32    33 ar  
    62    32    38 ar  
    63    33    34 1   
    64    33    35 ar  
    65    35    36 ar  
    66    35    63 1   
    67    36    37 ar  
    68    36    64 1   
    69    37    38 ar  
    70    37    65 1   
    71    38    39 1   
@<TRIPOS>SUBSTRUCTURE
     1 9R3         1 TEMP              0 ****  ****    0 ROOT
