@<TRIPOS>MOLECULE
9R4
   30    29     1     0     0
SMALL
bcc


@<TRIPOS>ATOM
      1 N           85.2810    -2.8190    40.9290 n8         1 9R4      -0.878800
      2 CA          84.6810    -3.0900    39.6260 c3         1 9R4       0.014500
      3 C           85.8060    -3.2440    38.5750 c          1 9R4       0.935600
      4 O           86.7340    -4.0190    38.8910 o          1 9R4      -0.847300
      5 CB          83.7960    -4.3440    39.6360 c3         1 9R4      -0.081400
      6 CG          83.0390    -4.6170    38.3350 c3         1 9R4      -0.145400
      7 CD          82.0530    -3.5280    37.9400 c          1 9R4       0.672100
      8 NE          81.1110    -3.2850    38.8590 ns         1 9R4      -0.559900
      9 CZ          80.0330    -2.3110    38.8150 c3         1 9R4      -0.015600
     10 C01         79.0810    -2.5950    37.6510 c3         1 9R4      -0.074100
     11 C02         80.5820    -0.8850    38.7230 c3         1 9R4      -0.074100
     12 CH          79.2490    -2.4620    40.1600 c          1 9R4       0.927600
     13 O01         79.6790    -3.3060    40.9750 o          1 9R4      -0.840800
     14 O02         78.2600    -1.7240    40.2990 o          1 9R4      -0.840800
     15 O03         82.1300    -2.9510    36.8590 o          1 9R4      -0.651100
     16 H1          84.5820    -2.9250    41.6550 hn         1 9R4       0.313800
     17 H2          85.9780    -3.5330    41.1030 hn         1 9R4       0.313800
     18 H4          84.0610    -2.2270    39.3550 h1         1 9R4       0.065700
     19 H6          83.0900    -4.2640    40.4700 hc         1 9R4       0.019700
     20 H7          84.4250    -5.2090    39.8620 hc         1 9R4       0.019700
     21 H8          82.4920    -5.5590    38.4380 hc         1 9R4       0.047200
     22 H9          83.7380    -4.7500    37.5090 hc         1 9R4       0.047200
     23 H10         81.1020    -3.8130    39.7230 hn         1 9R4       0.339500
     24 H11         78.2430    -1.8980    37.6660 hc         1 9R4       0.023700
     25 H12         79.5880    -2.4920    36.6930 hc         1 9R4       0.023700
     26 H13         78.6780    -3.6070    37.7140 hc         1 9R4       0.023700
     27 H14         81.2740    -0.6810    39.5430 hc         1 9R4       0.023700
     28 H15         81.1140    -0.7280    37.7860 hc         1 9R4       0.023700
     29 H16         79.7690    -0.1620    38.7770 hc         1 9R4       0.023700
     30 O1          85.6860    -2.6160    37.5070 o          1 9R4      -0.847300
@<TRIPOS>BOND
     1     1     2 1   
     2     1    16 1   
     3     1    17 1   
     4     2     3 1   
     5     2     5 1   
     6     2    18 1   
     7     3     4 1   
     8     3    30 1   
     9     5     6 1   
    10     5    19 1   
    11     5    20 1   
    12     6     7 1   
    13     6    21 1   
    14     6    22 1   
    15     7     8 1   
    16     7    15 2   
    17     8     9 1   
    18     8    23 1   
    19     9    10 1   
    20     9    11 1   
    21     9    12 1   
    22    10    24 1   
    23    10    25 1   
    24    10    26 1   
    25    11    27 1   
    26    11    28 1   
    27    11    29 1   
    28    12    13 1   
    29    12    14 1   
@<TRIPOS>SUBSTRUCTURE
     1 9R4         1 TEMP              0 ****  ****    0 ROOT
