@<TRIPOS>MOLECULE
9R5
   23    24     1     0     0
SMALL
No Charge or Current Charge


@<TRIPOS>ATOM
      1 C1           1.9460     1.4770     0.0970 ca         1 9R5      -0.103000
      2 C2           2.4820     0.1800    -0.0020 ca         1 9R5       0.118000
      3 C3           1.6320    -0.9380    -0.0500 ca         1 9R5      -0.103000
      4 C4           0.5510     1.6620     0.1400 ca         1 9R5      -0.102000
      5 C5          -0.3040     0.5490     0.0830 ca         1 9R5       0.064100
      6 C6           0.2400    -0.7590     0.0040 ca         1 9R5       0.063100
      7 C12         -3.9770    -0.0600     0.1570 c3         1 9R5       0.159800
      8 O7          -0.5860    -1.8660    -0.0200 os         1 9R5      -0.325100
      9 C8          -1.9660    -1.6730     0.3590 c6         1 9R5       0.120600
     10 C9          -2.5110    -0.3740    -0.2790 c6         1 9R5       0.130300
     11 O10         -1.6710     0.7440     0.1040 os         1 9R5      -0.337100
     12 Cl           4.2250    -0.0430    -0.0610 cl         1 9R5      -0.200000
     13 N13         -4.5550     1.1620    -0.4580 n8         1 9R5      -0.992200
     14 H1           2.6100     2.3360     0.1370 ha         1 9R5       0.133000
     15 H2           2.0500    -1.9380    -0.1180 ha         1 9R5       0.143000
     16 H3           0.1350     2.6640     0.2090 ha         1 9R5       0.131000
     17 H4          -4.6160    -0.9150    -0.1020 h1         1 9R5       0.038700
     18 H5          -3.9970     0.0580     1.2500 h1         1 9R5       0.038700
     19 H6          -2.5550    -2.5430     0.0370 h1         1 9R5       0.068200
     20 H7          -2.0270    -1.6010     1.4550 h1         1 9R5       0.068200
     21 H8          -2.4820    -0.4790    -1.3720 h1         1 9R5       0.080700
     22 H9          -5.4480     1.3800     0.0010 hn         1 9R5       0.403000
     23 H10         -3.9550     1.9600    -0.2120 hn         1 9R5       0.403000
@<TRIPOS>BOND
     1     1     2 ar  
     2     1     4 ar  
     3     1    14 1   
     4     2     3 ar  
     5     2    12 1   
     6     3     6 ar  
     7     3    15 1   
     8     4     5 ar  
     9     4    16 1   
    10     5     6 ar  
    11     5    11 1   
    12     6     8 1   
    13     7    10 1   
    14     7    13 1   
    15     7    17 1   
    16     7    18 1   
    17     8     9 1   
    18     9    10 1   
    19     9    19 1   
    20     9    20 1   
    21    10    11 1   
    22    10    21 1   
    23    13    22 1   
    24    13    23 1   
@<TRIPOS>SUBSTRUCTURE
     1 9R5         1 TEMP              0 ****  ****    0 ROOT
