@<TRIPOS>MOLECULE
9R5
   23    24     1     0     0
SMALL
abcg2


@<TRIPOS>ATOM
      1 C1           1.9030     1.4520     0.0890 ca         1 9R5      -0.103000
      2 C2           2.4050     0.1670    -0.0390 ca         1 9R5       0.118000
      3 C3           1.5670    -0.9350    -0.0690 ca         1 9R5      -0.103000
      4 C4           0.5300     1.6300     0.1640 ca         1 9R5      -0.102000
      5 C5          -0.3320     0.5440     0.1250 ca         1 9R5       0.064100
      6 C6           0.1930    -0.7480     0.0150 ca         1 9R5       0.063100
      7 C12         -3.9020    -0.0410     0.1860 c3         1 9R5       0.159800
      8 O7          -0.6020    -1.8380    -0.0130 os         1 9R5      -0.325100
      9 C8          -1.9450    -1.6080     0.3870 c6         1 9R5       0.120600
     10 C9          -2.4760    -0.3320    -0.2320 c6         1 9R5       0.130300
     11 O10         -1.6640     0.7630     0.1900 os         1 9R5      -0.337100
     12 CL           4.1190    -0.0750    -0.1500 cl         1 9R5      -0.200000
     13 N13         -4.4130     1.1410    -0.4860 n8         1 9R5      -0.992200
     14 H1           2.5650     2.3060     0.1170 ha         1 9R5       0.133000
     15 H2           1.9620    -1.9390    -0.1590 ha         1 9R5       0.143000
     16 H3           0.1190     2.6270     0.2530 ha         1 9R5       0.131000
     17 H4          -4.5080    -0.8980    -0.1160 h1         1 9R5       0.038700
     18 H5          -3.9510     0.0070     1.2830 h1         1 9R5       0.038700
     19 H6          -2.5230    -2.4670     0.0480 h1         1 9R5       0.068200
     20 H7          -2.0070    -1.5580     1.4800 h1         1 9R5       0.068200
     21 H8          -2.4290    -0.4100    -1.3260 h1         1 9R5       0.080700
     22 H9          -5.4030     1.2250    -0.2970 hn         1 9R5       0.403000
     23 H10         -3.9870     1.9700    -0.0920 hn         1 9R5       0.403000
@<TRIPOS>BOND
     1     1     2 ar  
     2     1     4 ar  
     3     1    14 1   
     4     2     3 ar  
     5     2    12 1   
     6     3     6 ar  
     7     3    15 1   
     8     4     5 ar  
     9     4    16 1   
    10     5     6 ar  
    11     5    11 1   
    12     6     8 1   
    13     7    10 1   
    14     7    13 1   
    15     7    17 1   
    16     7    18 1   
    17     8     9 1   
    18     9    10 1   
    19     9    19 1   
    20     9    20 1   
    21    10    11 1   
    22    10    21 1   
    23    13    22 1   
    24    13    23 1   
@<TRIPOS>SUBSTRUCTURE
     1 9R5         1 TEMP              0 ****  ****    0 ROOT
