@<TRIPOS>MOLECULE
9R7
   24    23     1     0     0
SMALL
bcc


@<TRIPOS>ATOM
      1 N           -1.3510     6.6380    29.7930 n8         1 9R7      -0.862800
      2 CA          -1.8420     7.9790    30.0930 c3         1 9R7       0.017500
      3 C           -3.2020     8.2570    29.4090 c          1 9R7       0.928600
      4 O           -3.9190     9.1200    29.9570 o          1 9R7      -0.840300
      5 CB          -0.7830     8.9800    29.6120 c3         1 9R7      -0.036400
      6 CG          -1.0520    10.4290    30.0020 c3         1 9R7      -0.153400
      7 CD           0.0500    11.3580    29.5400 c          1 9R7       0.653100
      8 O01          0.4840    11.3280    28.3920 o          1 9R7      -0.673100
      9 NE           0.5030    12.2180    30.4580 ns         1 9R7      -0.548900
     10 CZ           1.5250    13.2020    30.2170 c3         1 9R7      -0.049000
     11 CH           1.8160    14.0270    31.4910 c          1 9R7       0.922600
     12 O02          1.1570    13.7460    32.5100 o          1 9R7      -0.848300
     13 O03          2.6920    14.8990    31.3660 o          1 9R7      -0.848300
     14 O1          -3.4610     7.6250    28.3670 o          1 9R7      -0.840300
     15 H1          -0.5820     6.4250    30.4160 hn         1 9R7       0.302800
     16 H2          -2.0700     5.9570    30.0000 hn         1 9R7       0.302800
     17 H4          -1.9840     8.1400    31.1730 h1         1 9R7      -0.003300
     18 H5           0.1830     8.6770    30.0320 hc         1 9R7       0.032200
     19 H6          -0.6880     8.8950    28.5270 hc         1 9R7       0.032200
     20 H7          -1.1950    10.5050    31.0830 hc         1 9R7       0.063700
     21 H8          -1.9850    10.7700    29.5470 hc         1 9R7       0.063700
     22 H9           0.1370    12.2130    31.3990 hn         1 9R7       0.335500
     23 H10          2.4540    12.7270    29.8850 h1         1 9R7       0.025200
     24 H11          1.2290    13.8860    29.4140 h1         1 9R7       0.025200
@<TRIPOS>BOND
     1     1     2 1   
     2     1    15 1   
     3     1    16 1   
     4     2     3 1   
     5     2     5 1   
     6     2    17 1   
     7     3     4 1   
     8     3    14 1   
     9     5     6 1   
    10     5    18 1   
    11     5    19 1   
    12     6     7 1   
    13     6    20 1   
    14     6    21 1   
    15     7     8 2   
    16     7     9 1   
    17     9    10 1   
    18     9    22 1   
    19    10    11 1   
    20    10    23 1   
    21    10    24 1   
    22    11    12 1   
    23    11    13 1   
@<TRIPOS>SUBSTRUCTURE
     1 9R7         1 TEMP              0 ****  ****    0 ROOT
