@<TRIPOS>MOLECULE
9R8
   62    66     1     0     0
SMALL
abcg2


@<TRIPOS>ATOM
      1 C1          66.8170    33.8780    23.9320 ca         1 9R8      -0.282600
      2 C2          65.6260    33.3090    24.4980 ca         1 9R8       0.233100
      3 C3          65.6270    32.7170    25.7500 ca         1 9R8      -0.219000
      4 O5          64.4570    33.3390    23.8190 oh         1 9R8      -0.558100
      5 C8          68.0450    33.1560    25.8700 ca         1 9R8      -0.286900
      6 C9          66.8460    32.6500    26.4260 ca         1 9R8       0.038800
      7 C12         69.0570    32.8660    26.8440 cc         1 9R8       0.385900
      8 C13         70.5120    33.2130    26.7930 c3         1 9R8      -0.042400
      9 C14         71.1380    32.9750    25.4350 ca         1 9R8      -0.079300
     10 C15         71.8280    33.9940    24.7870 ca         1 9R8      -0.114000
     11 C16         72.2080    32.5540    22.8920 ca         1 9R8      -0.110000
     12 C19         70.9990    31.7420    24.7960 ca         1 9R8      -0.097000
     13 C21         68.4980    37.6930    25.0590 ca         1 9R8      -0.157500
     14 C22         67.7440    36.9540    24.1580 ca         1 9R8      -0.078500
     15 C24         69.7320    36.3820    22.9560 ca         1 9R8      -0.078500
     16 N29         70.6660    38.5780    25.7900 nh         1 9R8      -0.790400
     17 C30         69.9990    39.2410    26.9050 c6         1 9R8       0.162800
     18 C31         70.9090    40.2940    27.5150 c6         1 9R8       0.146600
     19 C33         72.8210    39.1580    26.8070 c6         1 9R8       0.146600
     20 C34         71.9830    38.0610    26.1770 c6         1 9R8       0.162800
     21 C4          68.0180    33.7670    24.6200 ca         1 9R8       0.062000
     22 C6          66.7210    34.5050    22.5890 c          1 9R8       0.629700
     23 O7          65.8350    34.1210    21.7930 o          1 9R8      -0.649100
     24 N10         67.1890    32.1240    27.6270 na         1 9R8      -0.083400
     25 N11         68.5290    32.2440    27.8780 nd         1 9R8      -0.524100
     26 C17         71.5250    31.5120    23.5280 ca         1 9R8      -0.072300
     27 C18         72.3610    33.7830    23.5190 ca         1 9R8      -0.113000
     28 C23         68.3530    36.2720    23.1140 ca         1 9R8      -0.095000
     29 C25         69.8920    37.8060    24.9200 ca         1 9R8       0.301000
     30 C26         70.4860    37.1370    23.8340 ca         1 9R8      -0.157500
     31 N27         67.5870    35.4740    22.2070 n          1 9R8      -0.210400
     32 C28         67.5060    35.9420    20.8190 c3         1 9R8       0.091300
     33 O32         72.1590    39.7470    27.9220 os         1 9R8      -0.451000
     34 H1          64.7140    32.3000    26.1520 ha         1 9R8       0.139000
     35 H2          64.6870    33.6030    22.8920 ho         1 9R8       0.517000
     36 H3          71.0280    32.6310    27.5600 hc         1 9R8       0.067200
     37 H4          70.6390    34.2670    27.0570 hc         1 9R8       0.067200
     38 H5          71.9230    34.9620    25.2610 ha         1 9R8       0.107000
     39 H6          72.6120    32.4000    21.8980 ha         1 9R8       0.112000
     40 H7          70.4480    30.9500    25.2910 ha         1 9R8       0.119000
     41 H8          72.2930    29.5840    22.9540 hc         1 9R8       0.044367
     42 H9          70.5660    29.5950    23.3110 hc         1 9R8       0.044367
     43 H10         71.1690    30.2820    21.7940 hc         1 9R8       0.044367
     44 H11         67.9840    38.1760    25.8760 ha         1 9R8       0.118000
     45 H12         66.6720    36.8820    24.2920 ha         1 9R8       0.124500
     46 H13         70.2240    35.8550    22.1490 ha         1 9R8       0.124500
     47 H14         69.1010    39.7430    26.5490 h1         1 9R8       0.049450
     48 H15         69.7020    38.5150    27.6770 h1         1 9R8       0.049450
     49 H16         71.0810    41.0980    26.7870 h1         1 9R8       0.056200
     50 H17         70.4420    40.7180    28.4040 h1         1 9R8       0.056200
     51 H18         73.7590    38.7450    27.1760 h1         1 9R8       0.056200
     52 H19         73.0390    39.9320    26.0600 h1         1 9R8       0.056200
     53 H20         71.8670    37.2310    26.8890 h1         1 9R8       0.049450
     54 H21         72.5140    37.6850    25.3080 h1         1 9R8       0.049450
     55 H22         68.9300    34.1450    24.1880 ha         1 9R8       0.135000
     56 H23         66.5990    31.6500    28.2910 hn         1 9R8       0.379000
     57 H24         72.8800    34.5880    23.0130 ha         1 9R8       0.108000
     58 H25         71.5520    37.1980    23.6720 ha         1 9R8       0.118000
     59 H26         68.4160    36.4880    20.5880 h1         1 9R8       0.049367
     60 H27         67.4090    35.0940    20.1460 h1         1 9R8       0.049367
     61 H28         66.6470    36.6030    20.6820 h1         1 9R8       0.049367
     62 C20         71.3740    30.1710    22.8600 c3         1 9R8      -0.047800
@<TRIPOS>BOND
     1     1     2 ar  
     2     1    21 ar  
     3     1    22 1   
     4     2     3 ar  
     5     2     4 1   
     6     3     6 ar  
     7     3    34 1   
     8     4    35 1   
     9     5     6 ar  
    10     5     7 1   
    11     5    21 ar  
    12     6    24 1   
    13     7     8 1   
    14     7    25 2   
    15     8     9 1   
    16     8    36 1   
    17     8    37 1   
    18     9    10 ar  
    19     9    12 ar  
    20    10    27 ar  
    21    10    38 1   
    22    11    26 ar  
    23    11    27 ar  
    24    11    39 1   
    25    12    26 ar  
    26    12    40 1   
    27    13    14 ar  
    28    13    29 ar  
    29    13    44 1   
    30    14    28 ar  
    31    14    45 1   
    32    15    28 ar  
    33    15    30 ar  
    34    15    46 1   
    35    16    17 1   
    36    16    20 1   
    37    16    29 1   
    38    17    18 1   
    39    17    47 1   
    40    17    48 1   
    41    18    33 1   
    42    18    49 1   
    43    18    50 1   
    44    19    20 1   
    45    19    33 1   
    46    19    51 1   
    47    19    52 1   
    48    20    53 1   
    49    20    54 1   
    50    21    55 1   
    51    22    23 2   
    52    22    31 1   
    53    24    25 1   
    54    24    56 1   
    55    26    62 1   
    56    27    57 1   
    57    28    31 1   
    58    29    30 ar  
    59    30    58 1   
    60    31    32 1   
    61    32    59 1   
    62    32    60 1   
    63    32    61 1   
    64    41    62 1   
    65    42    62 1   
    66    43    62 1   
@<TRIPOS>SUBSTRUCTURE
     1 9R8         1 TEMP              0 ****  ****    0 ROOT
