@<TRIPOS>MOLECULE
9R8
   62    66     1     0     0
SMALL
No Charge or Current Charge


@<TRIPOS>ATOM
      1 C1          66.7270    33.8410    23.9530 ca         1 9R8      -0.282600
      2 C2          65.5720    33.2640    24.5480 ca         1 9R8       0.233100
      3 C3          65.6290    32.6620    25.8180 ca         1 9R8      -0.219000
      4 O5          64.3830    33.2760    23.8900 oh         1 9R8      -0.558100
      5 C8          67.9800    33.1540    25.9050 ca         1 9R8      -0.286900
      6 C9          66.8630    32.6360    26.4680 ca         1 9R8       0.038800
      7 C12         69.0440    32.9220    26.8560 cc         1 9R8       0.385900
      8 C13         70.4840    33.3500    26.7070 c3         1 9R8      -0.042400
      9 C14         71.0750    33.0890    25.3250 ca         1 9R8      -0.079300
     10 C15         71.7280    34.1230    24.6270 ca         1 9R8      -0.114000
     11 C16         72.1120    32.6300    22.7450 ca         1 9R8      -0.110000
     12 C19         70.9560    31.8200    24.7260 ca         1 9R8      -0.097000
     13 C21         68.5100    37.4720    25.2190 ca         1 9R8      -0.157500
     14 C22         67.7520    36.7520    24.2790 ca         1 9R8      -0.078500
     15 C24         69.6960    36.5740    22.8480 ca         1 9R8      -0.078500
     16 N29         70.6470    38.4750    25.9230 nh         1 9R8      -0.790400
     17 C30         70.0090    39.4310    26.8880 c6         1 9R8       0.162800
     18 C31         71.0290    40.4560    27.4700 c6         1 9R8       0.146600
     19 C33         72.8830    38.9920    27.0210 c6         1 9R8       0.146600
     20 C34         71.9460    37.9040    26.4140 c6         1 9R8       0.162800
     21 C4          67.9670    33.7530    24.6390 ca         1 9R8       0.062000
     22 C6          66.6360    34.4880    22.5860 c          1 9R8       0.629700
     23 O7          65.7450    34.1250    21.8200 o          1 9R8      -0.649100
     24 N10         67.2250    32.1140    27.6880 na         1 9R8      -0.083400
     25 N11         68.5920    32.2860    27.9500 nd         1 9R8      -0.524100
     26 C17         71.4680    31.5860    23.4350 ca         1 9R8      -0.072300
     27 C18         72.2430    33.8950    23.3410 ca         1 9R8      -0.113000
     28 C23         68.3210    36.3380    23.0560 ca         1 9R8      -0.095000
     29 C25         69.8680    37.7590    24.9810 ca         1 9R8       0.301000
     30 C26         70.4500    37.3000    23.7860 ca         1 9R8      -0.157500
     31 N27         67.6150    35.4360    22.1730 n          1 9R8      -0.210400
     32 C28         67.7400    35.6850    20.7170 c3         1 9R8       0.091300
     33 O32         72.1850    39.7780    28.0150 os         1 9R8      -0.451000
     34 H1          64.7430    32.2260    26.2710 ha         1 9R8       0.139000
     35 H2          64.6020    33.5710    22.9660 ho         1 9R8       0.517000
     36 H3          71.0940    32.8370    27.4590 hc         1 9R8       0.067200
     37 H4          70.5470    34.4170    26.9510 hc         1 9R8       0.067200
     38 H5          71.8300    35.1070    25.0770 ha         1 9R8       0.107000
     39 H6          72.5140    32.4610    21.7490 ha         1 9R8       0.112000
     40 H7          70.4560    31.0140    25.2600 ha         1 9R8       0.119000
     41 H8          72.1520    29.5570    23.0910 hc         1 9R8       0.044367
     42 H9          70.3880    29.7300    23.0930 hc         1 9R8       0.044367
     43 H10         71.3270    30.2800    21.7000 hc         1 9R8       0.044367
     44 H11         68.0370    37.7840    26.1440 ha         1 9R8       0.118000
     45 H12         66.7110    36.5300    24.5050 ha         1 9R8       0.124500
     46 H13         70.1930    36.1890    21.9600 ha         1 9R8       0.124500
     47 H14         69.2050    39.9930    26.3900 h1         1 9R8       0.049450
     48 H15         69.5550    38.8760    27.7220 h1         1 9R8       0.049450
     49 H16         71.3550    41.1470    26.6790 h1         1 9R8       0.056200
     50 H17         70.5500    41.0480    28.2630 h1         1 9R8       0.056200
     51 H18         73.7560    38.5140    27.4870 h1         1 9R8       0.056200
     52 H19         73.2450    39.6570    26.2240 h1         1 9R8       0.056200
     53 H20         71.7490    37.1400    27.1810 h1         1 9R8       0.049450
     54 H21         72.4900    37.4060    25.5990 h1         1 9R8       0.049450
     55 H22         68.8890    34.1250    24.2030 ha         1 9R8       0.135000
     56 H23         66.6050    31.6510    28.3500 hn         1 9R8       0.379000
     57 H24         72.7420    34.6990    22.8050 ha         1 9R8       0.108000
     58 H25         71.4980    37.4960    23.5840 ha         1 9R8       0.118000
     59 H26         68.3920    36.5450    20.5220 h1         1 9R8       0.049367
     60 H27         68.1600    34.7970    20.2280 h1         1 9R8       0.049367
     61 H28         66.7540    35.9020    20.2860 h1         1 9R8       0.049367
     62 C20         71.3260    30.2140    22.7940 c3         1 9R8      -0.047800
@<TRIPOS>BOND
     1     1     2 ar  
     2     1    21 ar  
     3     1    22 1   
     4     2     3 ar  
     5     2     4 1   
     6     3     6 ar  
     7     3    34 1   
     8     4    35 1   
     9     5     6 ar  
    10     5     7 1   
    11     5    21 ar  
    12     6    24 1   
    13     7     8 1   
    14     7    25 2   
    15     8     9 1   
    16     8    36 1   
    17     8    37 1   
    18     9    10 ar  
    19     9    12 ar  
    20    10    27 ar  
    21    10    38 1   
    22    11    26 ar  
    23    11    27 ar  
    24    11    39 1   
    25    12    26 ar  
    26    12    40 1   
    27    13    14 ar  
    28    13    29 ar  
    29    13    44 1   
    30    14    28 ar  
    31    14    45 1   
    32    15    28 ar  
    33    15    30 ar  
    34    15    46 1   
    35    16    17 1   
    36    16    20 1   
    37    16    29 1   
    38    17    18 1   
    39    17    47 1   
    40    17    48 1   
    41    18    33 1   
    42    18    49 1   
    43    18    50 1   
    44    19    20 1   
    45    19    33 1   
    46    19    51 1   
    47    19    52 1   
    48    20    53 1   
    49    20    54 1   
    50    21    55 1   
    51    22    23 2   
    52    22    31 1   
    53    24    25 1   
    54    24    56 1   
    55    26    62 1   
    56    27    57 1   
    57    28    31 1   
    58    29    30 ar  
    59    30    58 1   
    60    31    32 1   
    61    32    59 1   
    62    32    60 1   
    63    32    61 1   
    64    41    62 1   
    65    42    62 1   
    66    43    62 1   
@<TRIPOS>SUBSTRUCTURE
     1 9R8         1 TEMP              0 ****  ****    0 ROOT
