@<TRIPOS>MOLECULE
9R9
   32    34     1     0     0
SMALL
No Charge or Current Charge


@<TRIPOS>ATOM
      1 CAK         -2.1110    -0.2870    -1.2800 c6         1 9R9      -0.082400
      2 CAL         -3.6150    -0.6760    -1.2830 c6         1 9R9      -0.070900
      3 CAM         -4.3300    -0.1600    -0.0120 c6         1 9R9      -0.074400
      4 CAN         -3.6300    -0.6750     1.2680 c6         1 9R9      -0.070900
      5 CAO         -2.1270    -0.2830     1.2810 c6         1 9R9      -0.082400
      6 CAJ         -1.3610    -0.7610     0.0050 c6         1 9R9       0.233300
      7 OAP         -1.3750    -2.1960     0.0090 oh         1 9R9      -0.653000
      8 CAF          0.1110    -0.2400     0.0060 ca         1 9R9      -0.023300
      9 CAE          0.4360     1.1390     0.0290 ca         1 9R9      -0.223900
     10 CAI         -0.3700     2.3440     0.0430 cc         1 9R9       0.351800
     11 NAH          0.3780     3.4590     0.0570 nd         1 9R9      -0.513100
     12 NAG          1.6860     2.9670     0.0510 na         1 9R9      -0.059400
     13 CAD          1.7230     1.5900     0.0300 ca         1 9R9      -0.035200
     14 CAC          2.8210     0.7280     0.0060 ca         1 9R9      -0.127000
     15 CAB          2.5540    -0.6520    -0.0250 ca         1 9R9       0.158000
     16 ClA          3.8910    -1.7940    -0.0650 cl         1 9R9      -0.202000
     17 CAA          1.2240    -1.1310    -0.0270 ca         1 9R9      -0.135000
     18 H1          -1.6220    -0.7100    -2.1680 hc         1 9R9       0.050450
     19 H2          -2.0360     0.8000    -1.3910 hc         1 9R9       0.050450
     20 H3          -4.1030    -0.2640    -2.1760 hc         1 9R9       0.044950
     21 H4          -3.7210    -1.7680    -1.3510 hc         1 9R9       0.044950
     22 H5          -4.3400     0.9390    -0.0120 hc         1 9R9       0.038200
     23 H6          -5.3800    -0.4820    -0.0180 hc         1 9R9       0.038200
     24 H7          -4.1280    -0.2610     2.1560 hc         1 9R9       0.044950
     25 H8          -3.7380    -1.7670     1.3370 hc         1 9R9       0.044950
     26 H9          -2.0590     0.8040     1.3890 hc         1 9R9       0.050450
     27 H10         -1.6480    -0.6960     2.1800 hc         1 9R9       0.050450
     28 H11         -1.0750    -2.4710     0.9000 ho         1 9R9       0.444000
     29 H12         -1.4430     2.4840     0.0380 h4         1 9R9       0.052800
     30 H14          3.8410     1.1030     0.0050 ha         1 9R9       0.137000
     31 H15          1.0790    -2.2060    -0.0610 ha         1 9R9       0.140000
     32 H13          2.4920     3.5910     0.0580 hn         1 9R9       0.379000
@<TRIPOS>BOND
     1     1     2 1   
     2     1     6 1   
     3     1    18 1   
     4     1    19 1   
     5     2     3 1   
     6     2    20 1   
     7     2    21 1   
     8     3     4 1   
     9     3    22 1   
    10     3    23 1   
    11     4     5 1   
    12     4    24 1   
    13     4    25 1   
    14     5     6 1   
    15     5    26 1   
    16     5    27 1   
    17     6     7 1   
    18     6     8 1   
    19     7    28 1   
    20     8     9 ar  
    21     8    17 ar  
    22     9    10 1   
    23     9    13 ar  
    24    10    11 2   
    25    10    29 1   
    26    11    12 1   
    27    12    13 1   
    28    12    32 1   
    29    13    14 ar  
    30    14    15 ar  
    31    14    30 1   
    32    15    16 1   
    33    15    17 ar  
    34    17    31 1   
@<TRIPOS>SUBSTRUCTURE
     1 9R9         1 TEMP              0 ****  ****    0 ROOT
