@<TRIPOS>MOLECULE
9R9
   32    34     1     0     0
SMALL
abcg2


@<TRIPOS>ATOM
      1 CAK         -2.0870    -0.3080    -1.2620 c6         1 9R9      -0.082400
      2 CAL         -3.5650    -0.6840    -1.2580 c6         1 9R9      -0.070900
      3 CAM         -4.2630    -0.1640    -0.0070 c6         1 9R9      -0.074400
      4 CAN         -3.5770    -0.6700     1.2560 c6         1 9R9      -0.070900
      5 CAO         -2.1000    -0.2860     1.2680 c6         1 9R9      -0.082400
      6 CAJ         -1.3570    -0.7650     0.0090 c6         1 9R9       0.233300
      7 OAP         -1.3650    -2.1760    -0.0340 oh         1 9R9      -0.653000
      8 CAF          0.0690    -0.2310     0.0060 ca         1 9R9      -0.023300
      9 CAE          0.3580     1.1520     0.0290 ca         1 9R9      -0.223900
     10 CAI         -0.3890     2.3660     0.0420 cc         1 9R9       0.351800
     11 NAH          0.4040     3.4070     0.0540 nd         1 9R9      -0.513100
     12 NAG          1.6520     2.9400     0.0480 na         1 9R9      -0.059400
     13 CAD          1.6950     1.5910     0.0300 ca         1 9R9      -0.035200
     14 CAC          2.7890     0.7200     0.0110 ca         1 9R9      -0.127000
     15 CAB          2.4690    -0.6120    -0.0190 ca         1 9R9       0.158000
     16 CLA          3.7520    -1.7820    -0.0520 cl         1 9R9      -0.202000
     17 CAA          1.1450    -1.0920    -0.0260 ca         1 9R9      -0.135000
     18 H1          -1.5810    -0.7330    -2.1330 hc         1 9R9       0.050450
     19 H2          -1.9970     0.7760    -1.3590 hc         1 9R9       0.050450
     20 H3          -4.0380    -0.2740    -2.1530 hc         1 9R9       0.044950
     21 H4          -3.6770    -1.7700    -1.3210 hc         1 9R9       0.044950
     22 H5          -4.2390     0.9320    -0.0130 hc         1 9R9       0.038200
     23 H6          -5.3160    -0.4520    -0.0100 hc         1 9R9       0.038200
     24 H7          -4.0590    -0.2530     2.1430 hc         1 9R9       0.044950
     25 H8          -3.6870    -1.7550     1.3290 hc         1 9R9       0.044950
     26 H9          -2.0180     0.7990     1.3580 hc         1 9R9       0.050450
     27 H10         -1.6010    -0.6930     2.1540 hc         1 9R9       0.050450
     28 H11         -1.1590    -2.5200     0.8430 ho         1 9R9       0.444000
     29 H12         -1.4580     2.5100     0.0400 h4         1 9R9       0.052800
     30 H14          3.8110     1.0730     0.0160 ha         1 9R9       0.137000
     31 H15          0.9870    -2.1600    -0.0640 ha         1 9R9       0.140000
     32 H13          2.4270     3.5830     0.0550 hn         1 9R9       0.379000
@<TRIPOS>BOND
     1     1     2 1   
     2     1     6 1   
     3     1    18 1   
     4     1    19 1   
     5     2     3 1   
     6     2    20 1   
     7     2    21 1   
     8     3     4 1   
     9     3    22 1   
    10     3    23 1   
    11     4     5 1   
    12     4    24 1   
    13     4    25 1   
    14     5     6 1   
    15     5    26 1   
    16     5    27 1   
    17     6     7 1   
    18     6     8 1   
    19     7    28 1   
    20     8     9 ar  
    21     8    17 ar  
    22     9    10 1   
    23     9    13 ar  
    24    10    11 2   
    25    10    29 1   
    26    11    12 1   
    27    12    13 1   
    28    12    32 1   
    29    13    14 ar  
    30    14    15 ar  
    31    14    30 1   
    32    15    16 1   
    33    15    17 ar  
    34    17    31 1   
@<TRIPOS>SUBSTRUCTURE
     1 9R9         1 TEMP              0 ****  ****    0 ROOT
