@<TRIPOS>MOLECULE
9RA
   53    55     1     0     0
SMALL
bcc


@<TRIPOS>ATOM
      1 O53          5.9280    -0.6120     2.3410 o          1 9RA      -0.825300
      2 C51          5.9330     0.2410     1.4330 c          1 9RA       0.921200
      3 O52          6.8930     0.9580     1.0880 o          1 9RA      -0.825300
      4 C11          4.6320     0.4270     0.6630 ca         1 9RA      -0.120600
      5 C10          3.4950    -0.3080     0.9900 ca         1 9RA      -0.113000
      6 C12          4.5410     1.3420    -0.3830 ca         1 9RA      -0.113000
      7 C13          3.3590     1.5120    -1.0850 ca         1 9RA      -0.143500
      8 C14          2.2220     0.7670    -0.7650 ca         1 9RA      -0.101800
      9 C9           2.3080    -0.1370     0.2950 ca         1 9RA      -0.143500
     10 C47          0.9610     0.9120    -1.5230 ce         1 9RA       0.021600
     11 C48          0.9510     1.1890    -2.8300 c2         1 9RA      -0.240000
     12 C4          -0.3140     0.6960    -0.7940 ca         1 9RA      -0.040800
     13 C3          -0.6920     1.5150     0.2790 ca         1 9RA      -0.048300
     14 C43          0.1680     2.6500     0.7560 c3         1 9RA      -0.047800
     15 C2          -1.9150     1.2670     0.8820 ca         1 9RA      -0.138000
     16 C5          -1.1610    -0.3310    -1.1840 ca         1 9RA      -0.119000
     17 C6          -2.3810    -0.5960    -0.5590 ca         1 9RA      -0.073300
     18 C19         -3.2250    -1.7560    -1.0790 c6         1 9RA       0.005300
     19 C27         -2.3770    -3.0230    -1.2360 c3         1 9RA      -0.080100
     20 C31         -3.8010    -1.3720    -2.4500 c3         1 9RA      -0.080100
     21 C20         -4.3660    -2.0710    -0.1060 c6         1 9RA      -0.065400
     22 C21         -5.0420    -0.8190     0.4140 c6         1 9RA      -0.064400
     23 C22         -4.0950     0.0590     1.2360 c6         1 9RA       0.004300
     24 C1          -2.7790     0.2410     0.4890 ca         1 9RA      -0.065300
     25 C39         -4.7960     1.4010     1.4730 c3         1 9RA      -0.079600
     26 C35         -3.8040    -0.5920     2.5960 c3         1 9RA      -0.079600
     27 H10          3.5400    -1.0230     1.8000 ha         1 9RA       0.145500
     28 H12          5.4050     1.9380    -0.6450 ha         1 9RA       0.145500
     29 H13          3.3120     2.2480    -1.8780 ha         1 9RA       0.108500
     30 H9           1.4390    -0.7210     0.5740 ha         1 9RA       0.108500
     31 H48          0.0210     1.3070    -3.3720 ha         1 9RA       0.108500
     32 H48A         1.8640     1.3030    -3.4000 ha         1 9RA       0.108500
     33 H43          0.5830     3.2210    -0.0750 hc         1 9RA       0.047700
     34 H43A        -0.4050     3.3360     1.3790 hc         1 9RA       0.047700
     35 H43B         1.0130     2.2930     1.3480 hc         1 9RA       0.047700
     36 H2          -2.2110     1.9180     1.6960 ha         1 9RA       0.121000
     37 H5          -0.8410    -0.9540    -2.0110 ha         1 9RA       0.130000
     38 H27         -1.8950    -3.2930    -0.2940 hc         1 9RA       0.032867
     39 H27A        -3.0100    -3.8590    -1.5380 hc         1 9RA       0.032867
     40 H27B        -1.6000    -2.9170    -1.9940 hc         1 9RA       0.032867
     41 H31         -3.0070    -1.1370    -3.1610 hc         1 9RA       0.032867
     42 H31A        -4.3830    -2.1980    -2.8650 hc         1 9RA       0.032867
     43 H31B        -4.4530    -0.5000    -2.3860 hc         1 9RA       0.032867
     44 H20         -5.0930    -2.7140    -0.6100 hc         1 9RA       0.037700
     45 H20A        -3.9800    -2.6580     0.7340 hc         1 9RA       0.037700
     46 H21         -5.4310    -0.2360    -0.4270 hc         1 9RA       0.035700
     47 H21A        -5.9090    -1.0820     1.0280 hc         1 9RA       0.035700
     48 H39         -5.7800     1.2300     1.9160 hc         1 9RA       0.032533
     49 H39A        -4.2490     2.0520     2.1560 hc         1 9RA       0.032533
     50 H39B        -4.9440     1.9410     0.5360 hc         1 9RA       0.032533
     51 H35         -3.2920    -1.5500     2.4920 hc         1 9RA       0.032533
     52 H35A        -3.1710     0.0530     3.2090 hc         1 9RA       0.032533
     53 H35B        -4.7340    -0.7660     3.1420 hc         1 9RA       0.032533
@<TRIPOS>BOND
     1     1     2 1   
     2     2     3 1   
     3     2     4 1   
     4     4     5 ar  
     5     4     6 ar  
     6     5     9 ar  
     7     5    27 1   
     8     6     7 ar  
     9     6    28 1   
    10     7     8 ar  
    11     7    29 1   
    12     8     9 ar  
    13     8    10 1   
    14     9    30 1   
    15    10    11 2   
    16    10    12 1   
    17    11    31 1   
    18    11    32 1   
    19    12    13 ar  
    20    12    16 ar  
    21    13    14 1   
    22    13    15 ar  
    23    14    33 1   
    24    14    34 1   
    25    14    35 1   
    26    15    24 ar  
    27    15    36 1   
    28    16    17 ar  
    29    16    37 1   
    30    17    18 1   
    31    17    24 ar  
    32    18    19 1   
    33    18    20 1   
    34    18    21 1   
    35    19    38 1   
    36    19    39 1   
    37    19    40 1   
    38    20    41 1   
    39    20    42 1   
    40    20    43 1   
    41    21    22 1   
    42    21    44 1   
    43    21    45 1   
    44    22    23 1   
    45    22    46 1   
    46    22    47 1   
    47    23    24 1   
    48    23    25 1   
    49    23    26 1   
    50    25    48 1   
    51    25    49 1   
    52    25    50 1   
    53    26    51 1   
    54    26    52 1   
    55    26    53 1   
@<TRIPOS>SUBSTRUCTURE
     1 9RA         1 TEMP              0 ****  ****    0 ROOT
