@<TRIPOS>MOLECULE
9RA
   53    55     1     0     0
SMALL
No Charge or Current Charge


@<TRIPOS>ATOM
      1 O53          5.9910    -0.4890     2.4340 o          1 9RA      -0.720000
      2 C51          5.9620     0.3190     1.5160 c          1 9RA       0.710600
      3 O52          6.9240     1.0120     1.2140 o          1 9RA      -0.720000
      4 C11          4.6750     0.4670     0.7160 ca         1 9RA      -0.120600
      5 C10          3.5340    -0.3090     1.0240 ca         1 9RA      -0.095000
      6 C12          4.5880     1.3870    -0.3550 ca         1 9RA      -0.095000
      7 C13          3.4000     1.5230    -1.0940 ca         1 9RA      -0.125500
      8 C14          2.2660     0.7460    -0.7830 ca         1 9RA      -0.101800
      9 C9           2.3470    -0.1700     0.2850 ca         1 9RA      -0.125500
     10 C47          0.9950     0.8940    -1.5600 ce         1 9RA       0.021600
     11 C48          0.9910     1.1660    -2.8830 c2         1 9RA      -0.340000
     12 C4          -0.2930     0.6940    -0.8280 ca         1 9RA      -0.040800
     13 C3          -0.6620     1.5020     0.2670 ca         1 9RA      -0.048300
     14 C43          0.2260     2.6430     0.7560 c3         1 9RA      -0.047800
     15 C2          -1.8880     1.2650     0.9130 ca         1 9RA      -0.120000
     16 C5          -1.1550    -0.3330    -1.2470 ca         1 9RA      -0.101000
     17 C6          -2.3800    -0.5960    -0.5920 ca         1 9RA      -0.073300
     18 C19         -3.2700    -1.7640    -1.0990 c6         1 9RA       0.005300
     19 C27         -2.4290    -3.0600    -1.3450 c3         1 9RA      -0.080100
     20 C31         -3.8880    -1.3540    -2.4730 c3         1 9RA      -0.080100
     21 C20         -4.3900    -2.1220    -0.0820 c6         1 9RA      -0.065400
     22 C21         -5.0940    -0.8670     0.4590 c6         1 9RA      -0.064400
     23 C22         -4.1170     0.0520     1.2450 c6         1 9RA       0.004300
     24 C1          -2.7710     0.2450     0.4900 ca         1 9RA      -0.065300
     25 C39         -4.8440     1.4160     1.4800 c3         1 9RA      -0.079600
     26 C35         -3.8120    -0.5500     2.6530 c3         1 9RA      -0.079600
     27 H10          3.5630    -1.0260     1.8410 ha         1 9RA       0.127500
     28 H12          5.4450     2.0040    -0.6190 ha         1 9RA       0.127500
     29 H13          3.3620     2.2500    -1.9020 ha         1 9RA       0.090500
     30 H9           1.4880    -0.7840     0.5440 ha         1 9RA       0.090500
     31 H48          0.0590     1.2620    -3.4380 ha         1 9RA       0.158500
     32 H48A         1.9110     1.2910    -3.4510 ha         1 9RA       0.158500
     33 H43          0.6660     3.1970    -0.0820 hc         1 9RA       0.047700
     34 H43A        -0.3390     3.3660     1.3560 hc         1 9RA       0.047700
     35 H43B         1.0440     2.2660     1.3790 hc         1 9RA       0.047700
     36 H2          -2.1490     1.8910     1.7600 ha         1 9RA       0.103000
     37 H5          -0.8510    -0.9350    -2.0970 ha         1 9RA       0.112000
     38 H27         -1.8560    -3.3330    -0.4510 hc         1 9RA       0.032867
     39 H27A        -3.0760    -3.9110    -1.5920 hc         1 9RA       0.032867
     40 H27B        -1.7200    -2.9550    -2.1740 hc         1 9RA       0.032867
     41 H31         -3.1120    -1.1940    -3.2310 hc         1 9RA       0.032867
     42 H31A        -4.5650    -2.1260    -2.8570 hc         1 9RA       0.032867
     43 H31B        -4.4560    -0.4200    -2.3990 hc         1 9RA       0.032867
     44 H20         -5.1310    -2.7840    -0.5520 hc         1 9RA       0.037700
     45 H20A        -3.9710    -2.6970     0.7550 hc         1 9RA       0.037700
     46 H21         -5.5460    -0.3120    -0.3740 hc         1 9RA       0.035700
     47 H21A        -5.9330    -1.1660     1.1030 hc         1 9RA       0.035700
     48 H39         -5.8420     1.2650     1.9080 hc         1 9RA       0.032533
     49 H39A        -4.3030     2.0720     2.1710 hc         1 9RA       0.032533
     50 H39B        -4.9710     1.9620     0.5370 hc         1 9RA       0.032533
     51 H35         -3.2540    -1.4910     2.5790 hc         1 9RA       0.032533
     52 H35A        -3.2040     0.1320     3.2590 hc         1 9RA       0.032533
     53 H35B        -4.7320    -0.7530     3.2130 hc         1 9RA       0.032533
@<TRIPOS>BOND
     1     1     2 1   
     2     2     3 1   
     3     2     4 1   
     4     4     5 ar  
     5     4     6 ar  
     6     5     9 ar  
     7     5    27 1   
     8     6     7 ar  
     9     6    28 1   
    10     7     8 ar  
    11     7    29 1   
    12     8     9 ar  
    13     8    10 1   
    14     9    30 1   
    15    10    11 2   
    16    10    12 1   
    17    11    31 1   
    18    11    32 1   
    19    12    13 ar  
    20    12    16 ar  
    21    13    14 1   
    22    13    15 ar  
    23    14    33 1   
    24    14    34 1   
    25    14    35 1   
    26    15    24 ar  
    27    15    36 1   
    28    16    17 ar  
    29    16    37 1   
    30    17    18 1   
    31    17    24 ar  
    32    18    19 1   
    33    18    20 1   
    34    18    21 1   
    35    19    38 1   
    36    19    39 1   
    37    19    40 1   
    38    20    41 1   
    39    20    42 1   
    40    20    43 1   
    41    21    22 1   
    42    21    44 1   
    43    21    45 1   
    44    22    23 1   
    45    22    46 1   
    46    22    47 1   
    47    23    24 1   
    48    23    25 1   
    49    23    26 1   
    50    25    48 1   
    51    25    49 1   
    52    25    50 1   
    53    26    51 1   
    54    26    52 1   
    55    26    53 1   
@<TRIPOS>SUBSTRUCTURE
     1 9RA         1 TEMP              0 ****  ****    0 ROOT
