@<TRIPOS>MOLECULE
9RB
   39    40     1     0     0
SMALL
No Charge or Current Charge


@<TRIPOS>ATOM
      1 C1          -4.8020    -0.8270     0.3930 cc         1 9RB      -0.063300
      2 C2          -3.8200     0.0910     0.1450 cd         1 9RB      -0.058600
      3 C3          -0.3890     0.0490    -0.6590 ca         1 9RB       0.110400
      4 C4           0.1760    -1.1480    -1.1330 ca         1 9RB      -0.092000
      5 C5           1.5640    -1.3580    -1.0530 ca         1 9RB      -0.091000
      6 C6           2.4080    -0.3730    -0.4990 ca         1 9RB      -0.073800
      7 C7           3.8780    -0.6260    -0.4280 ce         1 9RB      -0.067200
      8 C8           4.8680     0.1780     0.0640 cf         1 9RB      -0.308200
      9 C9           6.3070    -0.1930     0.0790 c          1 9RB       0.602300
     10 C10          1.8360     0.8280    -0.0280 ca         1 9RB      -0.091000
     11 C11          0.4470     1.0360    -0.1090 ca         1 9RB      -0.092000
     12 C12         -4.4730     1.3120    -0.1850 cd         1 9RB       0.308300
     13 C13         -4.7100    -2.2780     0.7950 c3         1 9RB      -0.038800
     14 C14         -3.8330     2.6380    -0.5060 c3         1 9RB      -0.119400
     15 O            6.7150    -1.2640    -0.3490 o          1 9RB      -0.572100
     16 N3           7.1500     0.7660     0.6250 ns         1 9RB      -0.380400
     17 O1           8.5880     0.6670     0.4820 oh         1 9RB      -0.433100
     18 N2          -1.7760     0.2630    -0.7450 ne         1 9RB      -0.231400
     19 N1          -2.4580    -0.1490     0.2390 nf         1 9RB      -0.156400
     20 N4          -5.7890     1.2040    -0.1720 nc         1 9RB      -0.533800
     21 N           -5.9850    -0.1170     0.1810 na         1 9RB       0.137800
     22 C           -7.3520    -0.6460     0.3080 c3         1 9RB       0.070900
     23 H1          -0.4630    -1.9150    -1.5630 ha         1 9RB       0.130000
     24 H2           1.9820    -2.2910    -1.4240 ha         1 9RB       0.116000
     25 H3           4.1740    -1.5970    -0.8330 ha         1 9RB       0.197000
     26 H4           4.6180     1.1520     0.4770 ha         1 9RB       0.180000
     27 H5           2.4560     1.6080     0.4040 ha         1 9RB       0.116000
     28 H6           0.0180     1.9650     0.2570 ha         1 9RB       0.130000
     29 H7          -5.1850    -2.4440     1.7690 hc         1 9RB       0.060367
     30 H8          -5.2090    -2.9200     0.0590 hc         1 9RB       0.060367
     31 H9          -3.6670    -2.6060     0.8710 hc         1 9RB       0.060367
     32 H10         -3.4430     2.6420    -1.5300 hc         1 9RB       0.055700
     33 H11         -4.5490     3.4630    -0.4160 hc         1 9RB       0.055700
     34 H12         -3.0000     2.8440     0.1750 hc         1 9RB       0.055700
     35 H13          6.7810     1.6930     0.8310 hn         1 9RB       0.331500
     36 H14          8.9220     0.7970     1.4010 ho         1 9RB       0.449000
     37 H15         -8.0840     0.1420     0.0920 h1         1 9RB       0.059367
     38 H16         -7.4900    -1.4710    -0.4000 h1         1 9RB       0.059367
     39 H17         -7.5070    -1.0130     1.3300 h1         1 9RB       0.059367
@<TRIPOS>BOND
     1     1     2 2   
     2     1    13 1   
     3     1    21 1   
     4     2    12 1   
     5     2    19 1   
     6     3     4 ar  
     7     3    11 ar  
     8     3    18 1   
     9     4     5 ar  
    10     4    23 1   
    11     5     6 ar  
    12     5    24 1   
    13     6     7 1   
    14     6    10 ar  
    15     7     8 2   
    16     7    25 1   
    17     8     9 1   
    18     8    26 1   
    19     9    15 2   
    20     9    16 1   
    21    10    11 ar  
    22    10    27 1   
    23    11    28 1   
    24    12    14 1   
    25    12    20 2   
    26    13    29 1   
    27    13    30 1   
    28    13    31 1   
    29    14    32 1   
    30    14    33 1   
    31    14    34 1   
    32    16    17 1   
    33    16    35 1   
    34    17    36 1   
    35    18    19 2   
    36    20    21 1   
    37    21    22 1   
    38    22    37 1   
    39    22    38 1   
    40    22    39 1   
@<TRIPOS>SUBSTRUCTURE
     1 9RB         1 TEMP              0 ****  ****    0 ROOT
