@<TRIPOS>MOLECULE
9RB
   39    40     1     0     0
SMALL
abcg2


@<TRIPOS>ATOM
      1 C1          -4.8110    -0.9160     0.0580 cc         1 9RB      -0.063300
      2 C2          -3.8140     0.0560    -0.0060 cd         1 9RB      -0.058600
      3 C3          -0.3290     0.2860    -0.0830 ca         1 9RB       0.110400
      4 C4           0.1270    -1.0300    -0.1820 ca         1 9RB      -0.092000
      5 C5           1.4830    -1.2870    -0.2070 ca         1 9RB      -0.091000
      6 C6           2.4260    -0.2540    -0.1300 ca         1 9RB      -0.073800
      7 C7           3.8420    -0.6000    -0.1600 ce         1 9RB      -0.067200
      8 C8           4.8750     0.2410    -0.0480 cf         1 9RB      -0.308200
      9 C9           6.2630    -0.2650    -0.1100 c          1 9RB       0.602300
     10 C10          1.9570     1.0600    -0.0360 ca         1 9RB      -0.091000
     11 C11          0.6020     1.3230    -0.0160 ca         1 9RB      -0.092000
     12 C12         -4.5020     1.3010    -0.0700 cd         1 9RB       0.308300
     13 C13         -4.6930    -2.3920     0.1400 c3         1 9RB      -0.038800
     14 C14         -3.9530     2.6790    -0.1620 c3         1 9RB      -0.119400
     15 O            6.5600    -1.4380    -0.2510 o          1 9RB      -0.572100
     16 N3           7.1800     0.7160     0.0720 ns         1 9RB      -0.380400
     17 O1           8.4950     0.4540    -0.1660 oh         1 9RB      -0.433100
     18 N2          -1.6780     0.6730    -0.0590 ne         1 9RB      -0.231400
     19 N1          -2.4870    -0.2750    -0.0100 nf         1 9RB      -0.156400
     20 N4          -5.7950     1.0870    -0.0420 nc         1 9RB      -0.533800
     21 N           -5.9640    -0.2450     0.0320 na         1 9RB       0.137800
     22 C           -7.3050    -0.7720     0.0980 c3         1 9RB       0.070900
     23 H1          -0.5790    -1.8460    -0.2440 ha         1 9RB       0.130000
     24 H2           1.8260    -2.3110    -0.2900 ha         1 9RB       0.116000
     25 H3           4.0620    -1.6550    -0.2880 ha         1 9RB       0.197000
     26 H4           4.7260     1.3070     0.0880 ha         1 9RB       0.180000
     27 H5           2.6530     1.8870     0.0170 ha         1 9RB       0.116000
     28 H6           0.2430     2.3420     0.0530 ha         1 9RB       0.130000
     29 H7          -5.1920    -2.7860     1.0260 hc         1 9RB       0.060367
     30 H8          -5.1310    -2.8790    -0.7320 hc         1 9RB       0.060367
     31 H9          -3.6430    -2.6720     0.1910 hc         1 9RB       0.060367
     32 H10         -3.3260     2.7940    -1.0460 hc         1 9RB       0.055700
     33 H11         -4.7630     3.4050    -0.2080 hc         1 9RB       0.055700
     34 H12         -3.3220     2.9100     0.6970 hc         1 9RB       0.055700
     35 H13          6.9350     1.6920    -0.0110 hn         1 9RB       0.331500
     36 H14          8.8850     0.2420     0.6910 ho         1 9RB       0.449000
     37 H15         -7.8940    -0.3900    -0.7320 h1         1 9RB       0.059367
     38 H16         -7.2750    -1.8560     0.0370 h1         1 9RB       0.059367
     39 H17         -7.7800    -0.4860     1.0350 h1         1 9RB       0.059367
@<TRIPOS>BOND
     1     1     2 2   
     2     1    13 1   
     3     1    21 1   
     4     2    12 1   
     5     2    19 1   
     6     3     4 ar  
     7     3    11 ar  
     8     3    18 1   
     9     4     5 ar  
    10     4    23 1   
    11     5     6 ar  
    12     5    24 1   
    13     6     7 1   
    14     6    10 ar  
    15     7     8 2   
    16     7    25 1   
    17     8     9 1   
    18     8    26 1   
    19     9    15 2   
    20     9    16 1   
    21    10    11 ar  
    22    10    27 1   
    23    11    28 1   
    24    12    14 1   
    25    12    20 2   
    26    13    29 1   
    27    13    30 1   
    28    13    31 1   
    29    14    32 1   
    30    14    33 1   
    31    14    34 1   
    32    16    17 1   
    33    16    35 1   
    34    17    36 1   
    35    18    19 2   
    36    20    21 1   
    37    21    22 1   
    38    22    37 1   
    39    22    38 1   
    40    22    39 1   
@<TRIPOS>SUBSTRUCTURE
     1 9RB         1 TEMP              0 ****  ****    0 ROOT
