@<TRIPOS>MOLECULE
9RC
   47    49     1     0     0
SMALL
abcg2


@<TRIPOS>ATOM
      1 OAJ        -14.4420   -33.4360   -19.0140 o          1 9RC      -0.590000
      2 CAE        -13.7700   -33.6780   -20.0070 c          1 9RC       0.617000
      3 NAI        -13.6960   -34.9410   -20.5470 ns         1 9RC      -0.468500
      4 CAL        -12.9550   -35.3560   -21.6480 c          1 9RC       0.582200
      5 OAS        -12.9900   -36.5320   -22.0010 o          1 9RC      -0.556000
      6 CAT        -12.1880   -34.3070   -22.2910 cc         1 9RC      -0.259400
      7 CAU        -11.3610   -34.6450   -23.4920 c3         1 9RC      -0.030900
      8 CAF        -12.2600   -33.0620   -21.7790 cd         1 9RC       0.005600
      9 NAB        -13.0210   -32.7320   -20.6790 n          1 9RC      -0.317000
     10 CAA        -13.0250   -31.3580   -20.1690 c5         1 9RC       0.337700
     11 OAC        -13.1550   -30.4650   -21.2670 os         1 9RC      -0.439000
     12 CAD        -11.7490   -30.9420   -19.4450 c5         1 9RC      -0.162400
     13 CAH        -11.7500   -29.4310   -19.6510 c5         1 9RC       0.132300
     14 OAK        -12.6360   -28.7640   -18.7510 oh         1 9RC      -0.716000
     15 CAG        -12.3350   -29.2960   -21.0570 c5         1 9RC       0.157300
     16 CAR        -11.2540   -29.2090   -22.1150 c3         1 9RC       0.210600
     17 OAQ        -11.8690   -29.1800   -23.4070 os         1 9RC      -0.576400
     18 PAP        -11.2630   -30.0170   -24.6350 p5         1 9RC       1.414800
     19 OAO        -12.2340   -29.9300   -25.7560 o          1 9RC      -0.804500
     20 OAN        -10.6950   -31.3180   -24.1850 o          1 9RC      -0.804500
     21 OAM         -9.9780   -28.9870   -24.9540 os         1 9RC      -0.475500
     22 CAV         -9.0720   -29.1360   -25.9370 ca         1 9RC       0.312100
     23 CAW         -8.0490   -28.1780   -25.9940 ca         1 9RC      -0.201500
     24 CAY         -7.0840   -28.2470   -26.9760 ca         1 9RC      -0.010500
     25 CBA         -7.1400   -29.2800   -27.9110 ca         1 9RC      -0.251200
     26 NBB         -6.1340   -29.3530   -28.9510 no         1 9RC       0.688200
     27 OBD         -6.2030   -30.2620   -29.7750 o          1 9RC      -0.433500
     28 OBC         -5.2480   -28.5000   -28.9720 o          1 9RC      -0.433500
     29 CAZ         -8.1470   -30.2410   -27.8660 ca         1 9RC      -0.010500
     30 CAX         -9.1130   -30.1710   -26.8810 ca         1 9RC      -0.201500
     31 H1         -14.2380   -35.6500   -20.0690 hn         1 9RC       0.330500
     32 H2         -11.9770   -35.0970   -24.2730 hc         1 9RC       0.057367
     33 H3         -10.8920   -33.7480   -23.8920 hc         1 9RC       0.057367
     34 H4         -10.5840   -35.3710   -23.2380 hc         1 9RC       0.057367
     35 H5         -11.7310   -32.2390   -22.2400 h4         1 9RC       0.263000
     36 H6         -13.8940   -31.2860   -19.5200 h2         1 9RC       0.098700
     37 H7         -10.8780   -31.3890   -19.9280 hc         1 9RC       0.069700
     38 H8         -11.7520   -31.2270   -18.3940 hc         1 9RC       0.069700
     39 H9         -10.7470   -29.0020   -19.5860 h1         1 9RC       0.052700
     40 H10        -12.3040   -28.8880   -17.8520 ho         1 9RC       0.499000
     41 H11        -12.9850   -28.4220   -21.1180 h1         1 9RC       0.097700
     42 H12        -10.5760   -30.0610   -22.0450 h1         1 9RC       0.036700
     43 H13        -10.6840   -28.2880   -21.9730 h1         1 9RC       0.036700
     44 H15         -8.0330   -27.3870   -25.2560 ha         1 9RC       0.143000
     45 H16         -6.2950   -27.5120   -27.0270 ha         1 9RC       0.136500
     46 H17         -8.1700   -31.0320   -28.6000 ha         1 9RC       0.136500
     47 H18         -9.8980   -30.9110   -26.8440 ha         1 9RC       0.143000
@<TRIPOS>BOND
     1     1     2 2   
     2     2     3 1   
     3     2     9 1   
     4     3     4 1   
     5     3    31 1   
     6     4     5 2   
     7     4     6 1   
     8     6     7 1   
     9     6     8 2   
    10     7    32 1   
    11     7    33 1   
    12     7    34 1   
    13     8     9 1   
    14     8    35 1   
    15     9    10 1   
    16    10    11 1   
    17    10    12 1   
    18    10    36 1   
    19    11    15 1   
    20    12    13 1   
    21    12    37 1   
    22    12    38 1   
    23    13    14 1   
    24    13    15 1   
    25    13    39 1   
    26    14    40 1   
    27    15    16 1   
    28    15    41 1   
    29    16    17 1   
    30    16    42 1   
    31    16    43 1   
    32    17    18 1   
    33    18    19 1   
    34    18    20 1   
    35    18    21 1   
    36    21    22 1   
    37    22    23 ar  
    38    22    30 ar  
    39    23    24 ar  
    40    23    44 1   
    41    24    25 ar  
    42    24    45 1   
    43    25    26 1   
    44    25    29 ar  
    45    26    27 1   
    46    26    28 1   
    47    29    30 ar  
    48    29    46 1   
    49    30    47 1   
@<TRIPOS>SUBSTRUCTURE
     1 9RC         1 TEMP              0 ****  ****    0 ROOT
