@<TRIPOS>MOLECULE
9RC
   47    49     1     0     0
SMALL
No Charge or Current Charge


@<TRIPOS>ATOM
      1 OAJ        -12.6810   -33.8770   -19.6140 o          1 9RC      -0.590000
      2 CAE        -12.4060   -33.8410   -20.8020 c          1 9RC       0.617000
      3 NAI        -12.2400   -34.9900   -21.5060 ns         1 9RC      -0.468500
      4 CAL        -11.9370   -35.1360   -22.8220 c          1 9RC       0.582200
      5 OAS        -11.8140   -36.2450   -23.3170 o          1 9RC      -0.556000
      6 CAT        -11.7840   -33.8590   -23.5560 cc         1 9RC      -0.259400
      7 CAU        -11.4660   -33.9700   -25.0290 c3         1 9RC      -0.030900
      8 CAF        -11.9370   -32.6610   -22.8870 cd         1 9RC       0.005600
      9 NAB        -12.2320   -32.6460   -21.5210 n          1 9RC      -0.317000
     10 CAA        -12.3970   -31.3680   -20.7870 c5         1 9RC       0.337700
     11 OAC        -12.8630   -30.3020   -21.6410 os         1 9RC      -0.439000
     12 CAD        -10.9910   -30.9150   -20.3330 c5         1 9RC      -0.162400
     13 CAH        -11.3110   -29.4370   -20.0150 c5         1 9RC       0.132300
     14 OAK        -12.0350   -29.3230   -18.7830 oh         1 9RC      -0.716000
     15 CAG        -12.1820   -29.0660   -21.2700 c5         1 9RC       0.157300
     16 CAR        -11.3200   -28.5500   -22.4600 c3         1 9RC       0.210600
     17 OAQ        -12.1430   -27.8020   -23.3730 os         1 9RC      -0.576400
     18 PAP        -12.5350   -28.3920   -24.8240 p5         1 9RC       1.414800
     19 OAO        -13.6240   -27.5680   -25.4320 o          1 9RC      -0.804500
     20 OAN        -12.8980   -29.8360   -24.7620 o          1 9RC      -0.804500
     21 OAM        -11.1290   -28.1060   -25.5590 os         1 9RC      -0.475500
     22 CAV        -10.0600   -28.9550   -25.5680 ca         1 9RC       0.312100
     23 CAW         -8.8160   -28.4600   -25.1560 ca         1 9RC      -0.201500
     24 CAY         -7.6850   -29.2950   -25.1450 ca         1 9RC      -0.010500
     25 CBA         -7.7940   -30.6400   -25.5670 ca         1 9RC      -0.251200
     26 NBB         -6.5950   -31.5360   -25.5580 no         1 9RC       0.688200
     27 OBD         -6.7370   -32.7080   -25.9270 o          1 9RC      -0.433500
     28 OBC         -5.5160   -31.0660   -25.1740 o          1 9RC      -0.433500
     29 CAZ         -9.0450   -31.1260   -26.0100 ca         1 9RC      -0.010500
     30 CAX        -10.1690   -30.2820   -26.0140 ca         1 9RC      -0.201500
     31 H1         -12.3570   -35.8430   -20.9840 hn         1 9RC       0.330500
     32 H2         -12.1570   -34.6550   -25.5360 hc         1 9RC       0.057367
     33 H3         -11.5480   -32.9980   -25.5280 hc         1 9RC       0.057367
     34 H4         -10.4460   -34.3420   -25.1840 hc         1 9RC       0.057367
     35 H5         -11.8500   -31.6830   -23.3540 h4         1 9RC       0.263000
     36 H6         -13.0830   -31.5110   -19.9410 h2         1 9RC       0.098700
     37 H7         -10.2440   -31.0110   -21.1300 hc         1 9RC       0.069700
     38 H8         -10.6270   -31.4760   -19.4660 hc         1 9RC       0.069700
     39 H9         -10.3960   -28.8300   -19.9670 h1         1 9RC       0.052700
     40 H10        -11.3860   -29.4410   -18.0500 ho         1 9RC       0.499000
     41 H11        -12.9230   -28.2970   -21.0160 h1         1 9RC       0.097700
     42 H12        -10.8260   -29.3980   -22.9510 h1         1 9RC       0.036700
     43 H13        -10.5330   -27.8940   -22.0680 h1         1 9RC       0.036700
     44 H15         -8.7310   -27.4270   -24.8320 ha         1 9RC       0.143000
     45 H16         -6.7330   -28.8880   -24.8090 ha         1 9RC       0.136500
     46 H17         -9.1550   -32.1510   -26.3590 ha         1 9RC       0.136500
     47 H18        -11.1180   -30.6610   -26.3790 ha         1 9RC       0.143000
@<TRIPOS>BOND
     1     1     2 2   
     2     2     3 1   
     3     2     9 1   
     4     3     4 1   
     5     3    31 1   
     6     4     5 2   
     7     4     6 1   
     8     6     7 1   
     9     6     8 2   
    10     7    32 1   
    11     7    33 1   
    12     7    34 1   
    13     8     9 1   
    14     8    35 1   
    15     9    10 1   
    16    10    11 1   
    17    10    12 1   
    18    10    36 1   
    19    11    15 1   
    20    12    13 1   
    21    12    37 1   
    22    12    38 1   
    23    13    14 1   
    24    13    15 1   
    25    13    39 1   
    26    14    40 1   
    27    15    16 1   
    28    15    41 1   
    29    16    17 1   
    30    16    42 1   
    31    16    43 1   
    32    17    18 1   
    33    18    19 1   
    34    18    20 1   
    35    18    21 1   
    36    21    22 1   
    37    22    23 ar  
    38    22    30 ar  
    39    23    24 ar  
    40    23    44 1   
    41    24    25 ar  
    42    24    45 1   
    43    25    26 1   
    44    25    29 ar  
    45    26    27 1   
    46    26    28 1   
    47    29    30 ar  
    48    29    46 1   
    49    30    47 1   
@<TRIPOS>SUBSTRUCTURE
     1 9RC         1 TEMP              0 ****  ****    0 ROOT
