@<TRIPOS>MOLECULE
9RF
   43    45     1     0     0
SMALL
No Charge or Current Charge


@<TRIPOS>ATOM
      1 C10         -3.0140     0.5950    -0.2840 cc         1 9RF       0.425900
      2 C13         -5.4610     1.1330    -0.1310 ca         1 9RF      -0.090000
      3 C15         -7.1300    -0.5960     0.3210 ca         1 9RF      -0.191300
      4 C20         -6.0920    -1.5470     0.3870 ca         1 9RF      -0.066000
      5 C21         -4.7540    -1.1650     0.1890 ca         1 9RF      -0.090000
      6 C22          4.2480    -0.0050     1.7260 ca         1 9RF      -0.022000
      7 C24          6.1650    -0.1650     0.2240 ca         1 9RF       0.204100
      8 C26          8.4620    -0.6150     1.0530 c3         1 9RF      -0.003400
      9 C02          5.3170     0.0800    -0.8770 ca         1 9RF      -0.139300
     10 C03          3.9370     0.2810    -0.6680 ca         1 9RF      -0.040000
     11 C04          3.3970     0.2380     0.6350 ca         1 9RF      -0.203000
     12 C06          0.8290     0.6520    -0.6830 c3         1 9RF       0.005300
     13 C07         -0.6600     0.8200    -0.5580 cc         1 9RF       0.429700
     14 C12         -4.4160     0.1820    -0.0760 ca         1 9RF      -0.093500
     15 C14         -6.7980     0.7510     0.0670 ca         1 9RF      -0.066000
     16 C23          5.6230    -0.2060     1.5260 ca         1 9RF      -0.233000
     17 C27          9.9210    -0.7990     0.5430 c          1 9RF       0.730000
     18 F17         -9.4600    -0.2280    -0.1260 f          1 9RF      -0.114333
     19 F18         -8.8280    -2.2840     0.1500 f          1 9RF      -0.114333
     20 F19         -8.9220    -0.9390     1.8560 f          1 9RF      -0.114333
     21 N08         -1.2830     1.9830    -0.6790 nd         1 9RF      -0.318000
     22 N09         -2.6500     1.8520    -0.5190 nd         1 9RF      -0.320000
     23 O28         10.1570    -0.7190    -0.6570 o          1 9RF      -0.708500
     24 O29         10.7870    -1.0210     1.3790 o          1 9RF      -0.708500
     25 S05          1.6500     0.4850     0.9720 ss         1 9RF      -0.222000
     26 S11         -1.6920    -0.5410    -0.2460 ss         1 9RF      -0.217800
     27 H131        -5.2450     2.1820    -0.3260 ha         1 9RF       0.137000
     28 H201        -6.3160    -2.5920     0.5960 ha         1 9RF       0.131000
     29 H211        -3.9870    -1.9330     0.2480 ha         1 9RF       0.137000
     30 H221         3.8400    -0.0390     2.7350 ha         1 9RF       0.111000
     31 H262         8.1830    -1.5290     1.5940 h1         1 9RF       0.022200
     32 H261         8.4640     0.2190     1.7660 h1         1 9RF       0.022200
     33 H012         6.3590    -0.8210    -2.5600 hc         1 9RF       0.043033
     34 H013         5.1040     0.3280    -3.0400 hc         1 9RF       0.043033
     35 H011         6.6360     0.9210    -2.3870 hc         1 9RF       0.043033
     36 H031         3.3020     0.4700    -1.5270 ha         1 9RF       0.107000
     37 H062         1.0340    -0.2450    -1.2800 h1         1 9RF       0.091200
     38 H061         1.2440     1.5220    -1.2060 h1         1 9RF       0.091200
     39 H141        -7.5760     1.5110     0.0250 ha         1 9RF       0.131000
     40 H231         6.2500    -0.3920     2.3920 ha         1 9RF       0.129000
     41 C01          5.8820     0.1300    -2.2940 c3         1 9RF      -0.028800
     42 C16         -8.5880    -1.0130     0.5480 c3         1 9RF       0.356300
     43 O25          7.5150    -0.3580    -0.0120 os         1 9RF      -0.284100
@<TRIPOS>BOND
     1     1    14 1   
     2     1    22 2   
     3     1    26 1   
     4     2    14 ar  
     5     2    15 ar  
     6     2    27 1   
     7     3     4 ar  
     8     3    15 ar  
     9     3    42 1   
    10     4     5 ar  
    11     4    28 1   
    12     5    14 ar  
    13     5    29 1   
    14     6    11 ar  
    15     6    16 ar  
    16     6    30 1   
    17     7     9 ar  
    18     7    16 ar  
    19     7    43 1   
    20     8    17 1   
    21     8    31 1   
    22     8    32 1   
    23     8    43 1   
    24     9    10 ar  
    25     9    41 1   
    26    10    11 ar  
    27    10    36 1   
    28    11    25 1   
    29    12    13 1   
    30    12    25 1   
    31    12    37 1   
    32    12    38 1   
    33    13    21 2   
    34    13    26 1   
    35    15    39 1   
    36    16    40 1   
    37    17    23 1   
    38    17    24 1   
    39    18    42 1   
    40    19    42 1   
    41    20    42 1   
    42    21    22 1   
    43    33    41 1   
    44    34    41 1   
    45    35    41 1   
@<TRIPOS>SUBSTRUCTURE
     1 9RF         1 TEMP              0 ****  ****    0 ROOT
