@<TRIPOS>MOLECULE
9RF
   43    45     1     0     0
SMALL
abcg2


@<TRIPOS>ATOM
      1 C10         -2.8820     0.6420     0.2480 cc         1 9RF       0.425900
      2 C13         -5.2540     1.0640     0.7770 ca         1 9RF      -0.090000
      3 C15         -6.9900    -0.3940    -0.0180 ca         1 9RF      -0.191300
      4 C20         -6.0420    -1.1850    -0.6490 ca         1 9RF      -0.066000
      5 C21         -4.7000    -0.8500    -0.5690 ca         1 9RF      -0.090000
      6 C22          4.0950     0.0520     1.4520 ca         1 9RF      -0.022000
      7 C24          6.0390    -0.3190     0.0740 ca         1 9RF       0.204100
      8 C26          8.2200     0.3650     0.7180 c3         1 9RF      -0.003400
      9 C02          5.2370    -0.9410    -0.9020 ca         1 9RF      -0.139300
     10 C03          3.8770    -1.0450    -0.6700 ca         1 9RF      -0.040000
     11 C04          3.2920    -0.5510     0.4970 ca         1 9RF      -0.203000
     12 C06          0.9480     0.8350     0.0240 c3         1 9RF       0.005300
     13 C07         -0.5220     0.9080     0.1950 cc         1 9RF       0.429700
     14 C12         -4.2920     0.2740     0.1440 ca         1 9RF      -0.093500
     15 C14         -6.5910     0.7320     0.6970 ca         1 9RF      -0.066000
     16 C23          5.4630     0.1710     1.2450 ca         1 9RF      -0.233000
     17 C27          9.6650     0.3570     0.1930 c          1 9RF       0.730000
     18 F17         -9.2000     0.3170    -0.3740 f          1 9RF      -0.114333
     19 F18         -8.7210    -1.7010    -0.9470 f          1 9RF      -0.114333
     20 F19         -8.8770    -1.1780     1.1350 f          1 9RF      -0.114333
     21 N08         -1.1270     1.8210     0.8840 nd         1 9RF      -0.318000
     22 N09         -2.4590     1.6740     0.9100 nd         1 9RF      -0.320000
     23 O28          9.8850    -0.1380    -0.9210 o          1 9RF      -0.708500
     24 O29         10.4800     0.8740     0.9820 o          1 9RF      -0.708500
     25 S05          1.5540    -0.7240     0.7740 ss         1 9RF      -0.222000
     26 S11         -1.5990    -0.2500    -0.4880 ss         1 9RF      -0.217800
     27 H131        -4.9540     1.9420     1.3320 ha         1 9RF       0.137000
     28 H201        -6.3260    -2.0650    -1.2080 ha         1 9RF       0.131000
     29 H211        -3.9810    -1.4830    -1.0730 ha         1 9RF       0.137000
     30 H221         3.6610     0.4360     2.3660 ha         1 9RF       0.111000
     31 H262         8.1860    -0.1610     1.6810 h1         1 9RF       0.022200
     32 H261         7.9140     1.4010     0.9080 h1         1 9RF       0.022200
     33 H012         6.6170    -2.2270    -1.9460 hc         1 9RF       0.043033
     34 H013         5.0990    -1.9380    -2.7920 hc         1 9RF       0.043033
     35 H011         6.3410    -0.6890    -2.7370 hc         1 9RF       0.043033
     36 H031         3.2540    -1.5250    -1.4160 ha         1 9RF       0.107000
     37 H062         1.2200     0.8550    -1.0320 h1         1 9RF       0.091200
     38 H061         1.4020     1.6880     0.5250 h1         1 9RF       0.091200
     39 H141        -7.3170     1.3610     1.1980 ha         1 9RF       0.131000
     40 H231         6.0610     0.6500     2.0080 ha         1 9RF       0.129000
     41 C01          5.8550    -1.4760    -2.1590 c3         1 9RF      -0.028800
     42 C16         -8.4450    -0.7440    -0.0590 c3         1 9RF       0.356300
     43 O25          7.3450    -0.2480    -0.2110 os         1 9RF      -0.284100
@<TRIPOS>BOND
     1     1    14 1   
     2     1    22 2   
     3     1    26 1   
     4     2    14 ar  
     5     2    15 ar  
     6     2    27 1   
     7     3     4 ar  
     8     3    15 ar  
     9     3    42 1   
    10     4     5 ar  
    11     4    28 1   
    12     5    14 ar  
    13     5    29 1   
    14     6    11 ar  
    15     6    16 ar  
    16     6    30 1   
    17     7     9 ar  
    18     7    16 ar  
    19     7    43 1   
    20     8    17 1   
    21     8    31 1   
    22     8    32 1   
    23     8    43 1   
    24     9    10 ar  
    25     9    41 1   
    26    10    11 ar  
    27    10    36 1   
    28    11    25 1   
    29    12    13 1   
    30    12    25 1   
    31    12    37 1   
    32    12    38 1   
    33    13    21 2   
    34    13    26 1   
    35    15    39 1   
    36    16    40 1   
    37    17    23 1   
    38    17    24 1   
    39    18    42 1   
    40    19    42 1   
    41    20    42 1   
    42    21    22 1   
    43    33    41 1   
    44    34    41 1   
    45    35    41 1   
@<TRIPOS>SUBSTRUCTURE
     1 9RF         1 TEMP              0 ****  ****    0 ROOT
