@<TRIPOS>MOLECULE
9RH
   20    20     1     0     0
SMALL
No Charge or Current Charge


@<TRIPOS>ATOM
      1 O1          66.6230   -46.2460    29.8140 oh         1 9RH      -0.661500
      2 C1          66.1720   -45.7820    31.0760 c3         1 9RH       0.402300
      3 O2          65.9610   -46.9820    31.7950 oh         1 9RH      -0.661500
      4 C2          64.8290   -45.0390    30.9310 ca         1 9RH      -0.140300
      5 C3          64.4750   -44.3920    29.7230 ca         1 9RH      -0.068000
      6 C4          63.2550   -43.7020    29.6090 ca         1 9RH      -0.117500
      7 C5          62.3750   -43.6390    30.7000 ca         1 9RH      -0.087000
      8 C6          62.7180   -44.2630    31.9090 ca         1 9RH      -0.117500
      9 C7          63.9360   -44.9550    32.0260 ca         1 9RH      -0.068000
     10 C8          67.2690   -44.8810    31.7750 c3         1 9RH       0.273000
     11 F1          68.4540   -45.5320    31.8790 f          1 9RH      -0.105000
     12 F2          66.8940   -44.5170    33.0250 f          1 9RH      -0.105000
     13 F3          67.4910   -43.7450    31.0700 f          1 9RH      -0.105000
     14 H1          67.5530   -46.5220    29.9520 ho         1 9RH       0.473000
     15 H2          65.0980   -47.3150    31.4720 ho         1 9RH       0.473000
     16 H3          65.1430   -44.4160    28.8650 ha         1 9RH       0.129500
     17 H4          62.9950   -43.2120    28.6730 ha         1 9RH       0.119000
     18 H5          61.4320   -43.1030    30.6100 ha         1 9RH       0.117000
     19 H6          62.0410   -44.2090    32.7590 ha         1 9RH       0.119000
     20 H7          64.1860   -45.4200    32.9780 ha         1 9RH       0.129500
@<TRIPOS>BOND
     1     1     2 1   
     2     1    14 1   
     3     2     3 1   
     4     2     4 1   
     5     2    10 1   
     6     3    15 1   
     7     4     5 ar  
     8     4     9 ar  
     9     5     6 ar  
    10     5    16 1   
    11     6     7 ar  
    12     6    17 1   
    13     7     8 ar  
    14     7    18 1   
    15     8     9 ar  
    16     8    19 1   
    17     9    20 1   
    18    10    11 1   
    19    10    12 1   
    20    10    13 1   
@<TRIPOS>SUBSTRUCTURE
     1 9RH         1 TEMP              0 ****  ****    0 ROOT
