@<TRIPOS>MOLECULE
9RH
   20    20     1     0     0
SMALL
abcg2


@<TRIPOS>ATOM
      1 O1          66.5480   -46.1930    29.8130 oh         1 9RH      -0.661500
      2 C1          66.1240   -45.7810    31.0840 c3         1 9RH       0.402300
      3 O2          66.0590   -46.8490    31.9880 oh         1 9RH      -0.661500
      4 C2          64.8110   -45.0310    30.9360 ca         1 9RH      -0.140300
      5 C3          64.5290   -44.3200    29.7710 ca         1 9RH      -0.068000
      6 C4          63.3320   -43.6240    29.6510 ca         1 9RH      -0.117500
      7 C5          62.4110   -43.6300    30.6950 ca         1 9RH      -0.087000
      8 C6          62.6930   -44.3350    31.8600 ca         1 9RH      -0.117500
      9 C7          63.8910   -45.0300    31.9830 ca         1 9RH      -0.068000
     10 C8          67.2160   -44.8530    31.6930 c3         1 9RH       0.273000
     11 F1          68.3970   -45.4960    31.7910 f          1 9RH      -0.105000
     12 F2          66.8880   -44.4230    32.9230 f          1 9RH      -0.105000
     13 F3          67.4160   -43.7690    30.9250 f          1 9RH      -0.105000
     14 H1          67.3480   -46.7290    29.9130 ho         1 9RH       0.473000
     15 H2          65.3090   -47.4110    31.7490 ho         1 9RH       0.473000
     16 H3          65.2420   -44.3130    28.9590 ha         1 9RH       0.129500
     17 H4          63.1190   -43.0780    28.7410 ha         1 9RH       0.119000
     18 H5          61.4790   -43.0890    30.5990 ha         1 9RH       0.117000
     19 H6          61.9820   -44.3440    32.6760 ha         1 9RH       0.119000
     20 H7          64.1070   -45.5740    32.8920 ha         1 9RH       0.129500
@<TRIPOS>BOND
     1     1     2 1   
     2     1    14 1   
     3     2     3 1   
     4     2     4 1   
     5     2    10 1   
     6     3    15 1   
     7     4     5 ar  
     8     4     9 ar  
     9     5     6 ar  
    10     5    16 1   
    11     6     7 ar  
    12     6    17 1   
    13     7     8 ar  
    14     7    18 1   
    15     8     9 ar  
    16     8    19 1   
    17     9    20 1   
    18    10    11 1   
    19    10    12 1   
    20    10    13 1   
@<TRIPOS>SUBSTRUCTURE
     1 9RH         1 TEMP              0 ****  ****    0 ROOT
