@<TRIPOS>MOLECULE
9RI
   43    44     1     0     0
SMALL
bcc


@<TRIPOS>ATOM
      1 C           15.0240    20.5760    34.3180 c          1 9RI       0.926600
      2 O           14.9170    19.3360    34.2440 o          1 9RI      -0.834300
      3 CA          13.7460    21.3700    34.6800 c3         1 9RI       0.020500
      4 CB          13.4270    21.2100    36.1660 c3         1 9RI      -0.048400
      5 N           12.6000    20.8940    33.9100 n8         1 9RI      -0.858800
      6 CG          14.4820    21.7680    37.1110 c3         1 9RI      -0.070400
      7 CD          14.0520    21.6890    38.5710 c3         1 9RI      -0.071400
      8 CE          15.0890    22.2470    39.5390 c3         1 9RI       0.174800
      9 NZ          15.3540    23.6730    39.3430 n3         1 9RI      -0.717600
     10 CM          16.7720    23.9250    39.1880 c3         1 9RI       0.158100
     11 C4          14.7820    24.5210    40.3830 c5         1 9RI       0.186500
     12 C5          14.8610    26.0280    40.0040 c5         1 9RI      -0.078400
     13 C6          13.4060    26.5080    40.0540 c5         1 9RI      -0.077700
     14 C1          12.9570    26.5540    41.5190 c5         1 9RI      -0.079400
     15 C7          12.6690    25.2700    39.5370 c5         1 9RI      -0.075400
     16 C3          13.2670    24.3350    40.5910 c5         1 9RI      -0.069700
     17 C2          12.8890    25.0520    41.8970 c5         1 9RI      -0.082400
     18 H2          13.9550    22.4360    34.5000 h1         1 9RI      -0.000300
     19 H3          12.4740    21.7130    36.3730 hc         1 9RI       0.020700
     20 H4          13.2610    20.1480    36.3770 hc         1 9RI       0.020700
     21 H5          11.8060    21.4920    34.1080 hn         1 9RI       0.304300
     22 H6          12.7810    21.0100    32.9200 hn         1 9RI       0.304300
     23 H8          15.4260    21.2270    36.9860 hc         1 9RI       0.053700
     24 H9          14.6920    22.8110    36.8570 hc         1 9RI       0.053700
     25 H10         13.1020    22.2170    38.6950 hc         1 9RI       0.028200
     26 H11         13.8580    20.6450    38.8380 hc         1 9RI       0.028200
     27 H12         14.7840    22.0420    40.5720 h1         1 9RI       0.022700
     28 H13         16.0190    21.6860    39.3980 h1         1 9RI       0.022700
     29 H15         16.9620    24.9680    38.9320 h1         1 9RI       0.027033
     30 H16         17.3560    23.6980    40.0940 h1         1 9RI       0.027033
     31 H17         17.1720    23.3200    38.3740 h1         1 9RI       0.027033
     32 H18         15.3030    24.3340    41.3400 h1         1 9RI       0.012700
     33 H19         15.5140    26.5990    40.6670 hc         1 9RI       0.046700
     34 H20         15.2460    26.1420    38.9890 hc         1 9RI       0.046700
     35 H21         13.2360    27.4370    39.5090 hc         1 9RI       0.057700
     36 H22         13.6510    27.1190    42.1440 hc         1 9RI       0.033200
     37 H23         11.9780    27.0290    41.6130 hc         1 9RI       0.033200
     38 H24         12.9410    24.9990    38.5150 hc         1 9RI       0.057700
     39 H25         11.5810    25.3520    39.6000 hc         1 9RI       0.057700
     40 H26         12.9290    23.2990    40.5690 hc         1 9RI       0.073700
     41 H27         11.8820    24.7700    42.2100 hc         1 9RI       0.035700
     42 H28         13.5620    24.7920    42.7160 hc         1 9RI       0.035700
     43 OXT         16.0660    21.2450    34.1540 o          1 9RI      -0.834300
@<TRIPOS>BOND
     1     1     2 1   
     2     1     3 1   
     3     1    43 1   
     4     3     4 1   
     5     3     5 1   
     6     3    18 1   
     7     4     6 1   
     8     4    19 1   
     9     4    20 1   
    10     5    21 1   
    11     5    22 1   
    12     6     7 1   
    13     6    23 1   
    14     6    24 1   
    15     7     8 1   
    16     7    25 1   
    17     7    26 1   
    18     8     9 1   
    19     8    27 1   
    20     8    28 1   
    21     9    10 1   
    22     9    11 1   
    23    10    29 1   
    24    10    30 1   
    25    10    31 1   
    26    11    12 1   
    27    11    16 1   
    28    11    32 1   
    29    12    13 1   
    30    12    33 1   
    31    12    34 1   
    32    13    14 1   
    33    13    15 1   
    34    13    35 1   
    35    14    17 1   
    36    14    36 1   
    37    14    37 1   
    38    15    16 1   
    39    15    38 1   
    40    15    39 1   
    41    16    17 1   
    42    16    40 1   
    43    17    41 1   
    44    17    42 1   
@<TRIPOS>SUBSTRUCTURE
     1 9RI         1 TEMP              0 ****  ****    0 ROOT
