@<TRIPOS>MOLECULE
9RI
   43    44     1     0     0
SMALL
No Charge or Current Charge


@<TRIPOS>ATOM
      1 C           15.1640    20.6130    34.2980 c          1 9RI       0.716000
      2 O           15.3370    19.4460    34.6310 o          1 9RI      -0.729000
      3 CA          13.7800    21.3210    34.6370 c3         1 9RI       0.020500
      4 CB          13.3920    21.1800    36.1360 c3         1 9RI      -0.048400
      5 N           12.6100    20.9400    33.7670 n8         1 9RI      -0.969200
      6 CG          14.4430    21.7570    37.1140 c3         1 9RI      -0.070400
      7 CD          14.0130    21.6540    38.5960 c3         1 9RI      -0.071400
      8 CE          15.0700    22.1910    39.5910 c3         1 9RI       0.174800
      9 NZ          15.3600    23.6440    39.4350 n3         1 9RI      -0.717600
     10 CM          16.7980    23.8560    39.1230 c3         1 9RI       0.158100
     11 C4          14.8110    24.5550    40.5070 c5         1 9RI       0.186500
     12 C5          14.8600    26.0350    39.9660 c5         1 9RI      -0.078400
     13 C6          13.3680    26.4960    40.0240 c5         1 9RI      -0.077700
     14 C1          12.9800    26.6220    41.5310 c5         1 9RI      -0.079400
     15 C7          12.6310    25.2100    39.5960 c5         1 9RI      -0.075400
     16 C3          13.2600    24.3350    40.7030 c5         1 9RI      -0.069700
     17 C2          12.8720    25.1350    41.9890 c5         1 9RI      -0.082400
     18 H2          13.9320    22.3940    34.4560 h1         1 9RI      -0.000300
     19 H3          12.4390    21.6970    36.3090 hc         1 9RI       0.020700
     20 H4          13.2230    20.1220    36.3730 hc         1 9RI       0.020700
     21 H5          11.8060    21.5320    34.0050 hn         1 9RI       0.359500
     22 H6          12.8220    21.1850    32.7930 hn         1 9RI       0.359500
     23 H8          15.3970    21.2310    36.9850 hc         1 9RI       0.053700
     24 H9          14.6230    22.8100    36.8620 hc         1 9RI       0.053700
     25 H10         13.0660    22.1890    38.7320 hc         1 9RI       0.028200
     26 H11         13.8160    20.6030    38.8370 hc         1 9RI       0.028200
     27 H12         14.7370    21.9760    40.6150 h1         1 9RI       0.022700
     28 H13         15.9830    21.5960    39.4490 h1         1 9RI       0.022700
     29 H15         17.0180    24.9000    38.8690 h1         1 9RI       0.027033
     30 H16         17.4230    23.5790    39.9820 h1         1 9RI       0.027033
     31 H17         17.1020    23.2410    38.2660 h1         1 9RI       0.027033
     32 H18         15.3640    24.4320    41.4480 h1         1 9RI       0.012700
     33 H19         15.5210    26.6710    40.5670 hc         1 9RI       0.046700
     34 H20         15.2140    26.1040    38.9320 hc         1 9RI       0.046700
     35 H21         13.1470    27.3860    39.4230 hc         1 9RI       0.057700
     36 H22         13.7180    27.1880    42.1110 hc         1 9RI       0.033200
     37 H23         12.0190    27.1370    41.6500 hc         1 9RI       0.033200
     38 H24         12.8840    24.8780    38.5810 hc         1 9RI       0.057700
     39 H25         11.5390    25.2880    39.6700 hc         1 9RI       0.057700
     40 H26         12.9160    23.2980    40.7380 hc         1 9RI       0.073700
     41 H27         11.8500    24.8970    42.3060 hc         1 9RI       0.035700
     42 H28         13.5270    24.9090    42.8390 hc         1 9RI       0.035700
     43 OXT         15.9950    21.2520    33.6640 o          1 9RI      -0.729000
@<TRIPOS>BOND
     1     1     2 1   
     2     1     3 1   
     3     1    43 1   
     4     3     4 1   
     5     3     5 1   
     6     3    18 1   
     7     4     6 1   
     8     4    19 1   
     9     4    20 1   
    10     5    21 1   
    11     5    22 1   
    12     6     7 1   
    13     6    23 1   
    14     6    24 1   
    15     7     8 1   
    16     7    25 1   
    17     7    26 1   
    18     8     9 1   
    19     8    27 1   
    20     8    28 1   
    21     9    10 1   
    22     9    11 1   
    23    10    29 1   
    24    10    30 1   
    25    10    31 1   
    26    11    12 1   
    27    11    16 1   
    28    11    32 1   
    29    12    13 1   
    30    12    33 1   
    31    12    34 1   
    32    13    14 1   
    33    13    15 1   
    34    13    35 1   
    35    14    17 1   
    36    14    36 1   
    37    14    37 1   
    38    15    16 1   
    39    15    38 1   
    40    15    39 1   
    41    16    17 1   
    42    16    40 1   
    43    17    41 1   
    44    17    42 1   
@<TRIPOS>SUBSTRUCTURE
     1 9RI         1 TEMP              0 ****  ****    0 ROOT
