@<TRIPOS>MOLECULE
9RJ
   34    36     1     0     0
SMALL
abcg2


@<TRIPOS>ATOM
      1 C1          21.6330   -21.7600    -0.0490 ca         1 9RJ      -0.039000
      2 C2          21.7270   -21.2790     1.2760 ca         1 9RJ      -0.096000
      3 C3          21.5920   -22.1370     2.3320 ca         1 9RJ      -0.108000
      4 C7          21.2370   -23.5640    -1.6310 ca         1 9RJ      -0.102000
      5 C8          21.3090   -22.6750    -2.6690 ca         1 9RJ      -0.108000
      6 C9          21.5720   -21.3120    -2.4290 ca         1 9RJ      -0.107000
      7 C10         21.7190   -20.8670    -1.1450 ca         1 9RJ      -0.100000
      8 C16         21.8820   -26.2840    -0.1650 ce         1 9RJ      -0.146200
      9 C19         22.5890   -29.7870    -1.2840 ca         1 9RJ      -0.125000
     10 C20         21.8050   -30.5490    -0.4340 ca         1 9RJ       0.129100
     11 C21         21.0190   -29.8960     0.5320 ca         1 9RJ       0.042100
     12 C22         21.0330   -28.5180     0.6240 ca         1 9RJ      -0.147000
     13 O23         21.8110   -31.8900    -0.5520 oh         1 9RJ      -0.532100
     14 O24         20.2780   -30.7010     1.3260 oh         1 9RJ      -0.560100
     15 C18         22.6000   -28.4020    -1.1840 ca         1 9RJ      -0.092000
     16 C17         21.8270   -27.7420    -0.2300 ca         1 9RJ      -0.056800
     17 C5          21.3590   -24.0410     0.8290 ca         1 9RJ      -0.039800
     18 C4          21.4030   -23.5090     2.1020 ca         1 9RJ      -0.102000
     19 C6          21.4230   -23.1480    -0.2890 ca         1 9RJ      -0.019000
     20 H1          21.8900   -20.2200     1.4400 ha         1 9RJ       0.114000
     21 H2          21.6420   -21.7680     3.3480 ha         1 9RJ       0.114000
     22 H3          21.0080   -24.5980    -1.8440 ha         1 9RJ       0.119000
     23 H4          21.1520   -23.0200    -3.6830 ha         1 9RJ       0.113000
     24 H5          21.6360   -20.6200    -3.2580 ha         1 9RJ       0.114000
     25 H6          21.8920   -19.8170    -0.9450 ha         1 9RJ       0.112000
     26 H7          20.6620   -25.9610     1.5060 ha         1 9RJ       0.170000
     27 H8          22.5330   -25.8290    -0.9050 ha         1 9RJ       0.179000
     28 H9          23.1960   -30.2850    -2.0300 ha         1 9RJ       0.132000
     29 H10         20.4100   -28.0470     1.3760 ha         1 9RJ       0.112000
     30 H11         21.2370   -32.2920     0.1110 ho         1 9RJ       0.483000
     31 H12         19.7790   -30.1890     1.9730 ho         1 9RJ       0.475000
     32 H13         23.2210   -27.8290    -1.8600 ha         1 9RJ       0.118000
     33 H14         21.3210   -24.1760     2.9520 ha         1 9RJ       0.110000
     34 C15         21.2530   -25.4990     0.7210 cf         1 9RJ      -0.158200
@<TRIPOS>BOND
     1     1     2 ar  
     2     1     7 ar  
     3     1    19 ar  
     4     2     3 ar  
     5     2    20 1   
     6     3    18 ar  
     7     3    21 1   
     8     4     5 ar  
     9     4    19 ar  
    10     4    22 1   
    11     5     6 ar  
    12     5    23 1   
    13     6     7 ar  
    14     6    24 1   
    15     7    25 1   
    16     8    16 1   
    17     8    27 1   
    18     8    34 2   
    19     9    10 ar  
    20     9    15 ar  
    21     9    28 1   
    22    10    11 ar  
    23    10    13 1   
    24    11    12 ar  
    25    11    14 1   
    26    12    16 ar  
    27    12    29 1   
    28    13    30 1   
    29    14    31 1   
    30    15    16 ar  
    31    15    32 1   
    32    17    18 ar  
    33    17    19 ar  
    34    17    34 1   
    35    18    33 1   
    36    26    34 1   
@<TRIPOS>SUBSTRUCTURE
     1 9RJ         1 TEMP              0 ****  ****    0 ROOT
