@<TRIPOS>MOLECULE
9RJ
   34    36     1     0     0
SMALL
No Charge or Current Charge


@<TRIPOS>ATOM
      1 C1          21.5830   -21.7290    -0.0520 ca         1 9RJ      -0.039000
      2 C2          21.7570   -21.2140     1.2440 ca         1 9RJ      -0.096000
      3 C3          21.7550   -22.0760     2.3490 ca         1 9RJ      -0.108000
      4 C7          21.1830   -23.5920    -1.5690 ca         1 9RJ      -0.102000
      5 C8          21.1590   -22.7010    -2.6550 ca         1 9RJ      -0.108000
      6 C9          21.3570   -21.3290    -2.4470 ca         1 9RJ      -0.107000
      7 C10         21.5610   -20.8430    -1.1470 ca         1 9RJ      -0.100000
      8 C16         21.9990   -26.3120    -0.0950 ce         1 9RJ      -0.146200
      9 C19         22.7710   -29.8750    -1.1770 ca         1 9RJ      -0.125000
     10 C20         21.8180   -30.6080    -0.4560 ca         1 9RJ       0.129100
     11 C21         20.9090   -29.9440     0.3920 ca         1 9RJ       0.042100
     12 C22         20.9600   -28.5440     0.5170 ca         1 9RJ      -0.147000
     13 O23         21.7610   -31.9650    -0.5710 oh         1 9RJ      -0.532100
     14 O24         19.9760   -30.6650     1.0920 oh         1 9RJ      -0.560100
     15 C18         22.8200   -28.4750    -1.0510 ca         1 9RJ      -0.092000
     16 C17         21.9200   -27.7990    -0.2020 ca         1 9RJ      -0.056800
     17 C5          21.4550   -24.0000     0.8680 ca         1 9RJ      -0.039800
     18 C4          21.6010   -23.4570     2.1600 ca         1 9RJ      -0.102000
     19 C6          21.4170   -23.1240    -0.2530 ca         1 9RJ      -0.019000
     20 H1          21.8810   -20.1440     1.3990 ha         1 9RJ       0.114000
     21 H2          21.8800   -21.6750     3.3530 ha         1 9RJ       0.114000
     22 H3          20.9930   -24.6420    -1.7670 ha         1 9RJ       0.119000
     23 H4          20.9800   -23.0770    -3.6600 ha         1 9RJ       0.113000
     24 H5          21.3370   -20.6410    -3.2890 ha         1 9RJ       0.114000
     25 H6          21.6960   -19.7750    -0.9900 ha         1 9RJ       0.112000
     26 H7          20.7030   -25.9110     1.5180 ha         1 9RJ       0.170000
     27 H8          22.6950   -25.8590    -0.8030 ha         1 9RJ       0.179000
     28 H9          23.4710   -30.3880    -1.8320 ha         1 9RJ       0.132000
     29 H10         20.2500   -28.0420     1.1680 ha         1 9RJ       0.112000
     30 H11         21.0260   -32.2520     0.0160 ho         1 9RJ       0.483000
     31 H12         19.4310   -30.0460     1.6270 ho         1 9RJ       0.475000
     32 H13         23.5650   -27.9170    -1.6150 ha         1 9RJ       0.118000
     33 H14         21.6210   -24.1160     3.0250 ha         1 9RJ       0.110000
     34 C15         21.3580   -25.4710     0.7670 cf         1 9RJ      -0.158200
@<TRIPOS>BOND
     1     1     2 ar  
     2     1     7 ar  
     3     1    19 ar  
     4     2     3 ar  
     5     2    20 1   
     6     3    18 ar  
     7     3    21 1   
     8     4     5 ar  
     9     4    19 ar  
    10     4    22 1   
    11     5     6 ar  
    12     5    23 1   
    13     6     7 ar  
    14     6    24 1   
    15     7    25 1   
    16     8    16 1   
    17     8    27 1   
    18     8    34 2   
    19     9    10 ar  
    20     9    15 ar  
    21     9    28 1   
    22    10    11 ar  
    23    10    13 1   
    24    11    12 ar  
    25    11    14 1   
    26    12    16 ar  
    27    12    29 1   
    28    13    30 1   
    29    14    31 1   
    30    15    16 ar  
    31    15    32 1   
    32    17    18 ar  
    33    17    19 ar  
    34    17    34 1   
    35    18    33 1   
    36    26    34 1   
@<TRIPOS>SUBSTRUCTURE
     1 9RJ         1 TEMP              0 ****  ****    0 ROOT
