@<TRIPOS>MOLECULE
9RK
   32    34     1     0     0
SMALL
No Charge or Current Charge


@<TRIPOS>ATOM
      1 C1          -4.8790     1.5190     0.7570 ca         1 9RK      -0.110000
      2 C2          -3.9200     2.3890     0.2070 ca         1 9RK      -0.110000
      3 C3          -2.6850     1.8860    -0.2420 ca         1 9RK      -0.108000
      4 C4          -2.4090     0.5130    -0.1390 ca         1 9RK       0.059100
      5 C5          -3.3840    -0.3670     0.3950 ca         1 9RK       0.056100
      6 C6          -4.6120     0.1410     0.8520 ca         1 9RK      -0.106000
      7 C8          -0.8120    -1.3010    -0.1490 c6         1 9RK       0.107300
      8 C11          0.4020    -1.7550    -1.0090 c3         1 9RK       0.107000
      9 C16          4.4090     0.4490     1.1180 cc         1 9RK      -0.100000
     10 O7          -1.1850     0.0350    -0.5630 os         1 9RK      -0.344100
     11 C9          -2.0290    -2.2460    -0.2860 c6         1 9RK       0.124600
     12 O10         -3.1420    -1.7250     0.4740 os         1 9RK      -0.326100
     13 N12          1.5820    -0.8900    -0.8600 ns         1 9RK      -0.493900
     14 C13          2.3820    -0.8370     0.2600 c          1 9RK       0.541600
     15 C14          3.4690     0.1800     0.1590 cd         1 9RK       0.049500
     16 C17          5.2200     1.4730     0.5900 cc         1 9RK      -0.201000
     17 C18          4.7260     1.7640    -0.6530 cd         1 9RK       0.147900
     18 O19          3.6350     0.9790    -0.9570 os         1 9RK      -0.241000
     19 H1          -5.8320     1.9120     1.1060 ha         1 9RK       0.118000
     20 H2          -4.1320     3.4540     0.1320 ha         1 9RK       0.118000
     21 H3          -1.9400     2.5590    -0.6590 ha         1 9RK       0.125000
     22 H4          -5.3560    -0.5320     1.2690 ha         1 9RK       0.128000
     23 H5          -0.5100    -1.2700     0.9080 h1         1 9RK       0.074700
     24 H6           0.6770    -2.7790    -0.7230 h1         1 9RK       0.070200
     25 H7           0.1050    -1.7700    -2.0660 h1         1 9RK       0.070200
     26 H9          -2.3230    -2.3190    -1.3430 h1         1 9RK       0.068700
     27 H10         -1.7840    -3.2540     0.0750 h1         1 9RK       0.068700
     28 H11          1.8050    -0.2360    -1.6030 hn         1 9RK       0.339500
     29 H12          6.0700     1.9350     1.0830 ha         1 9RK       0.148000
     30 H13          5.0500     2.4830    -1.3940 h4         1 9RK       0.056100
     31 H8           4.5170    -0.0240     2.0900 ha         1 9RK       0.159000
     32 O15          2.2020    -1.5650     1.2290 o          1 9RK      -0.597100
@<TRIPOS>BOND
     1     1     2 ar  
     2     1     6 ar  
     3     1    19 1   
     4     2     3 ar  
     5     2    20 1   
     6     3     4 ar  
     7     3    21 1   
     8     4     5 ar  
     9     4    10 1   
    10     5     6 ar  
    11     5    12 1   
    12     6    22 1   
    13     7     8 1   
    14     7    10 1   
    15     7    11 1   
    16     7    23 1   
    17     8    13 1   
    18     8    24 1   
    19     8    25 1   
    20     9    15 2   
    21     9    16 1   
    22     9    31 1   
    23    11    12 1   
    24    11    26 1   
    25    11    27 1   
    26    13    14 1   
    27    13    28 1   
    28    14    15 1   
    29    14    32 2   
    30    15    18 1   
    31    16    17 2   
    32    16    29 1   
    33    17    18 1   
    34    17    30 1   
@<TRIPOS>SUBSTRUCTURE
     1 9RK         1 TEMP              0 ****  ****    0 ROOT
