@<TRIPOS>MOLECULE
9RK
   32    34     1     0     0
SMALL
abcg2


@<TRIPOS>ATOM
      1 C1          -5.0200     1.4830     0.4600 ca         1 9RK      -0.110000
      2 C2          -4.0830     2.3370    -0.1090 ca         1 9RK      -0.110000
      3 C3          -2.8210     1.8610    -0.4340 ca         1 9RK      -0.108000
      4 C4          -2.4940     0.5310    -0.2070 ca         1 9RK       0.059100
      5 C5          -3.4420    -0.3320     0.3490 ca         1 9RK       0.056100
      6 C6          -4.7000     0.1520     0.6810 ca         1 9RK      -0.106000
      7 C8          -0.8720    -1.1420     0.0420 c6         1 9RK       0.107300
      8 C11          0.3710    -1.6280    -0.6790 c3         1 9RK       0.107000
      9 C16          4.9010     0.0020     0.6500 cc         1 9RK      -0.100000
     10 O7          -1.2480     0.1040    -0.5320 os         1 9RK      -0.344100
     11 C9          -2.0170    -2.1260    -0.0900 c6         1 9RK       0.124600
     12 O10         -3.1660    -1.6380     0.5790 os         1 9RK      -0.326100
     13 N12          1.4740    -0.7110    -0.5360 ns         1 9RK      -0.493900
     14 C13          2.6330    -1.0340     0.0650 c          1 9RK       0.541600
     15 C14          3.6510     0.0250     0.1200 cd         1 9RK       0.049500
     16 C17          5.4480     1.2960     0.4270 cc         1 9RK      -0.201000
     17 C18          4.4880     2.0020    -0.2200 cd         1 9RK       0.147900
     18 O19          3.3960     1.2420    -0.4110 os         1 9RK      -0.241000
     19 H1          -6.0040     1.8470     0.7250 ha         1 9RK       0.118000
     20 H2          -4.3260     3.3750    -0.2900 ha         1 9RK       0.118000
     21 H3          -2.0770     2.5180    -0.8680 ha         1 9RK       0.125000
     22 H4          -5.4250    -0.5260     1.1150 ha         1 9RK       0.128000
     23 H5          -0.6420    -0.9960     1.1050 h1         1 9RK       0.074700
     24 H6           0.6600    -2.5900    -0.2600 h1         1 9RK       0.070200
     25 H7           0.1530    -1.7840    -1.7390 h1         1 9RK       0.070200
     26 H9          -2.2430    -2.3070    -1.1480 h1         1 9RK       0.068700
     27 H10         -1.7570    -3.0770     0.3740 h1         1 9RK       0.068700
     28 H11          1.3580     0.2140    -0.9190 hn         1 9RK       0.339500
     29 H12          6.4250     1.6530     0.7100 ha         1 9RK       0.148000
     30 H13          4.4450     3.0130    -0.5920 h4         1 9RK       0.056100
     31 H8           5.3740    -0.8330     1.1390 ha         1 9RK       0.159000
     32 O15          2.8750    -2.1310     0.5510 o          1 9RK      -0.597100
@<TRIPOS>BOND
     1     1     2 ar  
     2     1     6 ar  
     3     1    19 1   
     4     2     3 ar  
     5     2    20 1   
     6     3     4 ar  
     7     3    21 1   
     8     4     5 ar  
     9     4    10 1   
    10     5     6 ar  
    11     5    12 1   
    12     6    22 1   
    13     7     8 1   
    14     7    10 1   
    15     7    11 1   
    16     7    23 1   
    17     8    13 1   
    18     8    24 1   
    19     8    25 1   
    20     9    15 2   
    21     9    16 1   
    22     9    31 1   
    23    11    12 1   
    24    11    26 1   
    25    11    27 1   
    26    13    14 1   
    27    13    28 1   
    28    14    15 1   
    29    14    32 2   
    30    15    18 1   
    31    16    17 2   
    32    16    29 1   
    33    17    18 1   
    34    17    30 1   
@<TRIPOS>SUBSTRUCTURE
     1 9RK         1 TEMP              0 ****  ****    0 ROOT
