@<TRIPOS>MOLECULE
9RL
   41    43     1     0     0
SMALL
No Charge or Current Charge


@<TRIPOS>ATOM
      1 C10          0.5780     1.2150    -1.2670 c3         1 9RL      -0.041100
      2 C12          2.8080    -0.0190    -1.2950 ca         1 9RL      -0.092000
      3 C13          4.0530    -0.3310    -0.7190 ca         1 9RL      -0.097500
      4 C15          3.5680     1.1600     1.1410 ca         1 9RL      -0.097500
      5 C16          2.3230     1.4720     0.5670 ca         1 9RL      -0.092000
      6 C19         -0.2710    -1.7880    -1.2370 cc         1 9RL       0.404400
      7 C01         -2.3080     0.7180    -2.4220 c3         1 9RL      -0.086100
      8 C02         -2.0380     1.0900    -0.9370 c3         1 9RL       0.234300
      9 C03         -3.1240     0.5550     0.0290 ca         1 9RL      -0.111300
     10 C04         -4.0410    -0.4630    -0.3390 ca         1 9RL      -0.092500
     11 C05         -5.0010    -0.9300     0.5750 ca         1 9RL      -0.106500
     12 C06         -5.0640    -0.3970     1.8710 ca         1 9RL      -0.099000
     13 C07         -4.1590     0.6040     2.2550 ca         1 9RL      -0.106500
     14 C08         -3.1980     1.0730     1.3440 ca         1 9RL      -0.092500
     15 C09         -0.6130     0.6360    -0.4440 c3         1 9RL       0.063300
     16 C11          1.9350     0.8820    -0.6530 ca         1 9RL      -0.089300
     17 C14          4.4310     0.2580     0.4980 ca         1 9RL       0.125000
     18 C21         -0.3930    -2.6960     0.6930 cd         1 9RL       0.514900
     19 N18         -0.4930    -0.8350    -0.2700 na         1 9RL      -0.051700
     20 N20         -0.2120    -2.9710    -0.6530 nd         1 9RL      -0.701000
     21 N22         -0.5580    -1.4070     0.9620 nc         1 9RL      -0.529800
     22 Cl1          5.9870    -0.1330     1.2170 cl         1 9RL      -0.201000
     23 H1           0.5330     0.8460    -2.2980 hc         1 9RL       0.066200
     24 H2           0.4780     2.3050    -1.3340 hc         1 9RL       0.066200
     25 H3           2.5250    -0.4830    -2.2370 ha         1 9RL       0.114000
     26 H4           4.7230    -1.0290    -1.2150 ha         1 9RL       0.132000
     27 H5           3.8640     1.6160     2.0820 ha         1 9RL       0.132000
     28 H6           1.6600     2.1720     1.0710 ha         1 9RL       0.114000
     29 H7          -0.1650    -1.5650    -2.2920 h5         1 9RL       0.060100
     30 H8          -2.2060    -0.3580    -2.5980 hc         1 9RL       0.050700
     31 H9          -3.3230     1.0130    -2.7160 hc         1 9RL       0.050700
     32 H10         -1.6140     1.2350    -3.0950 hc         1 9RL       0.050700
     33 H11         -4.0220    -0.9120    -1.3270 ha         1 9RL       0.108500
     34 H12         -5.6980    -1.7110     0.2770 ha         1 9RL       0.114500
     35 H13         -5.8070    -0.7610     2.5770 ha         1 9RL       0.115000
     36 H14         -4.2000     1.0160     3.2610 ha         1 9RL       0.114500
     37 H15         -2.5030     1.8440     1.6680 ha         1 9RL       0.108500
     38 H16         -0.5050     1.0610     0.5610 h1         1 9RL       0.086700
     39 H17         -0.3910    -3.4780     1.4450 h5         1 9RL       0.064100
     40 O23         -2.0990     2.5200    -0.8850 oh         1 9RL      -0.651000
     41 H18         -3.0510     2.7550    -0.9000 ho         1 9RL       0.447000
@<TRIPOS>BOND
     1     1    15 1   
     2     1    16 1   
     3     1    23 1   
     4     1    24 1   
     5     2     3 ar  
     6     2    16 ar  
     7     2    25 1   
     8     3    17 ar  
     9     3    26 1   
    10     4     5 ar  
    11     4    17 ar  
    12     4    27 1   
    13     5    16 ar  
    14     5    28 1   
    15     6    19 1   
    16     6    20 2   
    17     6    29 1   
    18     7     8 1   
    19     7    30 1   
    20     7    31 1   
    21     7    32 1   
    22     8     9 1   
    23     8    15 1   
    24     8    40 1   
    25     9    10 ar  
    26     9    14 ar  
    27    10    11 ar  
    28    10    33 1   
    29    11    12 ar  
    30    11    34 1   
    31    12    13 ar  
    32    12    35 1   
    33    13    14 ar  
    34    13    36 1   
    35    14    37 1   
    36    15    19 1   
    37    15    38 1   
    38    17    22 1   
    39    18    20 1   
    40    18    21 2   
    41    18    39 1   
    42    19    21 1   
    43    40    41 1   
@<TRIPOS>SUBSTRUCTURE
     1 9RL         1 TEMP              0 ****  ****    0 ROOT
