@<TRIPOS>MOLECULE
9RL
   41    43     1     0     0
SMALL
abcg2


@<TRIPOS>ATOM
      1 C10          0.5320     1.2620    -1.2500 c3         1 9RL      -0.041100
      2 C12          2.6640    -0.0830    -1.2910 ca         1 9RL      -0.092000
      3 C13          3.8790    -0.4710    -0.7430 ca         1 9RL      -0.097500
      4 C15          3.5200     1.0620     1.0840 ca         1 9RL      -0.097500
      5 C16          2.3110     1.4360     0.5190 ca         1 9RL      -0.092000
      6 C19         -0.3480    -1.6650    -1.2320 cc         1 9RL       0.404400
      7 C01         -2.3110     0.8130    -2.3610 c3         1 9RL      -0.086100
      8 C02         -2.0380     1.1730    -0.9040 c3         1 9RL       0.234300
      9 C03         -3.1000     0.5770     0.0210 ca         1 9RL      -0.111300
     10 C04         -3.6070    -0.7050    -0.1870 ca         1 9RL      -0.092500
     11 C05         -4.5450    -1.2530     0.6750 ca         1 9RL      -0.106500
     12 C06         -5.0000    -0.5290     1.7680 ca         1 9RL      -0.099000
     13 C07         -4.5050     0.7480     1.9860 ca         1 9RL      -0.106500
     14 C08         -3.5650     1.2930     1.1210 ca         1 9RL      -0.092500
     15 C09         -0.6300     0.7100    -0.4150 c3         1 9RL       0.063300
     16 C11          1.8630     0.8700    -0.6720 ca         1 9RL      -0.089300
     17 C14          4.2940     0.1050     0.4450 ca         1 9RL       0.125000
     18 C21         -0.4640    -2.5890     0.6290 cd         1 9RL       0.514900
     19 N18         -0.5280    -0.7310    -0.2900 na         1 9RL      -0.051700
     20 N20         -0.3070    -2.8580    -0.6850 nd         1 9RL      -0.701000
     21 N22         -0.5970    -1.3170     0.9090 nc         1 9RL      -0.529800
     22 CL1          5.8090    -0.3710     1.1440 cl         1 9RL      -0.201000
     23 H1           0.4590     0.9250    -2.2850 hc         1 9RL       0.066200
     24 H2           0.4430     2.3490    -1.2740 hc         1 9RL       0.066200
     25 H3           2.3470    -0.5320    -2.2250 ha         1 9RL       0.114000
     26 H4           4.4900    -1.2130    -1.2400 ha         1 9RL       0.132000
     27 H5           3.8540     1.5140     2.0090 ha         1 9RL       0.132000
     28 H6           1.7120     2.1880     1.0190 ha         1 9RL       0.114000
     29 H7          -0.2460    -1.4470    -2.2840 h5         1 9RL       0.060100
     30 H8          -2.2600    -0.2570    -2.5480 hc         1 9RL       0.050700
     31 H9          -3.3110     1.1430    -2.6410 hc         1 9RL       0.050700
     32 H10         -1.5990     1.3030    -3.0250 hc         1 9RL       0.050700
     33 H11         -3.2770    -1.2990    -1.0280 ha         1 9RL       0.108500
     34 H12         -4.9220    -2.2500     0.4870 ha         1 9RL       0.114500
     35 H13         -5.7350    -0.9550     2.4390 ha         1 9RL       0.115000
     36 H14         -4.8530     1.3290     2.8300 ha         1 9RL       0.114500
     37 H15         -3.2130     2.2950     1.3280 ha         1 9RL       0.108500
     38 H16         -0.5180     1.0730     0.6110 h1         1 9RL       0.086700
     39 H17         -0.4760    -3.3490     1.3960 h5         1 9RL       0.064100
     40 O23         -2.0570     2.5830    -0.8690 oh         1 9RL      -0.651000
     41 H18         -1.7560     2.9010    -0.0100 ho         1 9RL       0.447000
@<TRIPOS>BOND
     1     1    15 1   
     2     1    16 1   
     3     1    23 1   
     4     1    24 1   
     5     2     3 ar  
     6     2    16 ar  
     7     2    25 1   
     8     3    17 ar  
     9     3    26 1   
    10     4     5 ar  
    11     4    17 ar  
    12     4    27 1   
    13     5    16 ar  
    14     5    28 1   
    15     6    19 1   
    16     6    20 2   
    17     6    29 1   
    18     7     8 1   
    19     7    30 1   
    20     7    31 1   
    21     7    32 1   
    22     8     9 1   
    23     8    15 1   
    24     8    40 1   
    25     9    10 ar  
    26     9    14 ar  
    27    10    11 ar  
    28    10    33 1   
    29    11    12 ar  
    30    11    34 1   
    31    12    13 ar  
    32    12    35 1   
    33    13    14 ar  
    34    13    36 1   
    35    14    37 1   
    36    15    19 1   
    37    15    38 1   
    38    17    22 1   
    39    18    20 1   
    40    18    21 2   
    41    18    39 1   
    42    19    21 1   
    43    40    41 1   
@<TRIPOS>SUBSTRUCTURE
     1 9RL         1 TEMP              0 ****  ****    0 ROOT
