@<TRIPOS>MOLECULE
9RM
   28    29     1     0     0
SMALL
No Charge or Current Charge


@<TRIPOS>ATOM
      1 CAA          3.1230     2.8320    -0.4830 c3         1 9RM      -0.022900
      2 OAB          4.0570    -2.3860     0.8120 o          1 9RM      -0.527000
      3 FAC         -4.9110    -0.5750     0.4510 f          1 9RM      -0.108000
      4 FAD         -4.5030     1.2780    -0.6110 f          1 9RM      -0.108000
      5 FAE         -3.8840     1.0460     1.4600 f          1 9RM      -0.108000
      6 CAF         -1.3320    -1.8380    -1.3900 ca         1 9RM      -0.096000
      7 CAG         -0.1500    -1.1320    -1.1070 ca         1 9RM      -0.095000
      8 CAH         -2.5710    -1.3530    -0.9400 ca         1 9RM      -0.052000
      9 CAI         -1.4440     0.5550     0.0660 ca         1 9RM      -0.070000
     10 NAJ          4.6350     0.9570     0.0140 nc         1 9RM      -0.074600
     11 NAK          2.5770    -0.7860     0.3480 ns         1 9RM      -0.506600
     12 NAL          0.9640     0.7990    -0.0840 nu         1 9RM      -0.846000
     13 NAM          4.9130    -0.3080     0.3210 nd         1 9RM      -0.318400
     14 CAN          3.3180     1.3730    -0.1390 cc         1 9RM      -0.135600
     15 CAO         -0.1970     0.0650    -0.3670 ca         1 9RM       0.236000
     16 CAP         -2.6390    -0.1510    -0.2030 ca         1 9RM      -0.179300
     17 CAQ          2.2850     0.4740     0.0130 cd         1 9RM       0.342600
     18 CAR          3.8420    -1.2250     0.5090 c          1 9RM       0.632400
     19 CAS         -3.9880     0.3990     0.2770 c3         1 9RM       0.359300
     20 HAA          4.0770     3.3350    -0.6850 hc         1 9RM       0.046700
     21 HAAA         2.4980     2.9440    -1.3780 hc         1 9RM       0.046700
     22 HAAB         2.6350     3.3670     0.3410 hc         1 9RM       0.046700
     23 HAF         -1.2880    -2.7580    -1.9690 ha         1 9RM       0.136000
     24 HAG          0.7940    -1.5050    -1.4920 ha         1 9RM       0.138000
     25 HAH         -3.4750    -1.9110    -1.1770 ha         1 9RM       0.143000
     26 HAI         -1.4800     1.4880     0.6220 ha         1 9RM       0.140000
     27 HNAK         1.8470    -1.4560     0.5290 hn         1 9RM       0.449000
     28 HNAL         0.8010     1.7960     0.0640 hn         1 9RM       0.530000
@<TRIPOS>BOND
     1     1    14 1   
     2     1    20 1   
     3     1    21 1   
     4     1    22 1   
     5     2    18 2   
     6     3    19 1   
     7     4    19 1   
     8     5    19 1   
     9     6     7 ar  
    10     6     8 ar  
    11     6    23 1   
    12     7    15 ar  
    13     7    24 1   
    14     8    16 ar  
    15     8    25 1   
    16     9    15 ar  
    17     9    16 ar  
    18     9    26 1   
    19    10    13 2   
    20    10    14 1   
    21    11    17 1   
    22    11    18 1   
    23    11    27 1   
    24    12    15 1   
    25    12    17 1   
    26    12    28 1   
    27    13    18 1   
    28    14    17 2   
    29    16    19 1   
@<TRIPOS>SUBSTRUCTURE
     1 9RM         1 TEMP              0 ****  ****    0 ROOT
