@<TRIPOS>MOLECULE
9RM
   28    29     1     0     0
SMALL
abcg2


@<TRIPOS>ATOM
      1 CAA          3.1920     2.7980    -0.5480 c3         1 9RM      -0.022900
      2 OAB          3.6560    -2.3130     1.2520 o          1 9RM      -0.527000
      3 FAC         -4.7750    -0.5840     0.4050 f          1 9RM      -0.108000
      4 FAD         -4.1220     1.4490     0.1380 f          1 9RM      -0.108000
      5 FAE         -3.5380     0.3580     1.8930 f          1 9RM      -0.108000
      6 CAF         -1.3430    -1.7800    -1.5460 ca         1 9RM      -0.096000
      7 CAG         -0.1910    -1.0170    -1.4480 ca         1 9RM      -0.095000
      8 CAH         -2.5050    -1.3890    -0.8950 ca         1 9RM      -0.052000
      9 CAI         -1.3490     0.5300    -0.0050 ca         1 9RM      -0.070000
     10 NAJ          4.4180     0.9240     0.3850 nc         1 9RM      -0.074600
     11 NAK          2.3370    -0.7080     0.3630 ns         1 9RM      -0.506600
     12 NAL          0.9640     0.9330    -0.5540 nu         1 9RM      -0.846000
     13 NAM          4.6030    -0.2900     0.8240 nd         1 9RM      -0.318400
     14 CAN          3.2750     1.3850    -0.0690 cc         1 9RM      -0.135600
     15 CAO         -0.1960     0.1330    -0.6640 ca         1 9RM       0.236000
     16 CAP         -2.5060    -0.2290    -0.1340 ca         1 9RM      -0.179300
     17 CAQ          2.1510     0.5310    -0.0990 cd         1 9RM       0.342600
     18 CAR          3.5680    -1.1670     0.8430 c          1 9RM       0.632400
     19 CAS         -3.7400     0.2410     0.5740 c3         1 9RM       0.359300
     20 HAA          4.1640     3.2730    -0.4390 hc         1 9RM       0.046700
     21 HAAA         2.9060     2.8580    -1.6010 hc         1 9RM       0.046700
     22 HAAB         2.4700     3.3850     0.0240 hc         1 9RM       0.046700
     23 HAF         -1.3420    -2.6760    -2.1500 ha         1 9RM       0.136000
     24 HAG          0.6990    -1.3070    -1.9920 ha         1 9RM       0.138000
     25 HAH         -3.3960    -1.9920    -0.9960 ha         1 9RM       0.143000
     26 HAI         -1.3290     1.4280     0.6010 ha         1 9RM       0.140000
     27 HNAK         1.5650    -1.3640     0.4080 hn         1 9RM       0.449000
     28 HNAL         0.8670     1.9150    -0.7650 hn         1 9RM       0.530000
@<TRIPOS>BOND
     1     1    14 1   
     2     1    20 1   
     3     1    21 1   
     4     1    22 1   
     5     2    18 2   
     6     3    19 1   
     7     4    19 1   
     8     5    19 1   
     9     6     7 ar  
    10     6     8 ar  
    11     6    23 1   
    12     7    15 ar  
    13     7    24 1   
    14     8    16 ar  
    15     8    25 1   
    16     9    15 ar  
    17     9    16 ar  
    18     9    26 1   
    19    10    13 2   
    20    10    14 1   
    21    11    17 1   
    22    11    18 1   
    23    11    27 1   
    24    12    15 1   
    25    12    17 1   
    26    12    28 1   
    27    13    18 1   
    28    14    17 2   
    29    16    19 1   
@<TRIPOS>SUBSTRUCTURE
     1 9RM         1 TEMP              0 ****  ****    0 ROOT
