@<TRIPOS>MOLECULE
9RN
   21    22     1     0     0
SMALL
No Charge or Current Charge


@<TRIPOS>ATOM
      1 C2          -0.9080    -0.8300    -0.8020 c6         1 9RN       0.131300
      2 C4           1.2350    -0.5690     0.6000 c5         1 9RN       0.109300
      3 C5           0.7780     0.9080     0.8040 c5         1 9RN       0.112300
      4 C6           1.1680     1.5430    -0.5750 c5         1 9RN       0.113600
      5 O4           2.6670    -0.7400     0.6600 oh         1 9RN      -0.701000
      6 O5          -0.6830     0.9510     0.9490 os         1 9RN      -0.479000
      7 O3           1.0850     0.4530    -1.5380 os         1 9RN      -0.449000
      8 C3           0.6500    -0.7500    -0.8360 c5         1 9RN       0.166300
      9 O2          -1.3340    -1.9800    -0.0340 oh         1 9RN      -0.709000
     10 C1          -1.4780     0.4810    -0.1580 c6         1 9RN       0.356300
     11 O1          -2.7810     0.2540     0.3640 oh         1 9RN      -0.650000
     12 H1          -1.2850    -0.9040    -1.8330 h1         1 9RN       0.055700
     13 H2           0.7440    -1.2380     1.3220 h1         1 9RN       0.088700
     14 H3           1.2530     1.4020     1.6620 h1         1 9RN       0.093700
     15 H4           0.5050     2.3670    -0.8710 h1         1 9RN       0.059700
     16 H5           2.2000     1.9180    -0.5610 h1         1 9RN       0.059700
     17 H6           2.9300    -0.7110     1.6100 ho         1 9RN       0.506000
     18 H7           1.0460    -1.6420    -1.3400 h1         1 9RN       0.109700
     19 H8          -2.1460    -1.6540     0.4300 ho         1 9RN       0.526000
     20 H9          -1.5170     1.2680    -0.9270 h2         1 9RN       0.034700
     21 H10         -2.9410     1.0200     0.9560 ho         1 9RN       0.464000
@<TRIPOS>BOND
     1     1     8 1   
     2     1     9 1   
     3     1    10 1   
     4     1    12 1   
     5     2     3 1   
     6     2     5 1   
     7     2     8 1   
     8     2    13 1   
     9     3     4 1   
    10     3     6 1   
    11     3    14 1   
    12     4     7 1   
    13     4    15 1   
    14     4    16 1   
    15     5    17 1   
    16     6    10 1   
    17     7     8 1   
    18     8    18 1   
    19     9    19 1   
    20    10    11 1   
    21    10    20 1   
    22    11    21 1   
@<TRIPOS>SUBSTRUCTURE
     1 9RN         1 TEMP              0 ****  ****    0 ROOT
