@<TRIPOS>MOLECULE
9RN
   21    22     1     0     0
SMALL
bcc


@<TRIPOS>ATOM
      1 C2          -0.9140    -0.7940    -0.6780 c6         1 9RN       0.108100
      2 C4           1.2050    -0.5640     0.6050 c5         1 9RN       0.086100
      3 C5           0.7840     0.8950     0.8020 c5         1 9RN       0.089100
      4 C6           1.1880     1.4870    -0.5420 c5         1 9RN       0.090400
      5 O4           2.5970    -0.7220     0.5240 oh         1 9RN      -0.578800
      6 O5          -0.6090     0.9350     1.0450 os         1 9RN      -0.432600
      7 O3           0.9880     0.4350    -1.4880 os         1 9RN      -0.402600
      8 C3           0.6110    -0.7420    -0.7840 c5         1 9RN       0.143100
      9 O2          -1.2480    -1.9370     0.0670 oh         1 9RN      -0.586800
     10 C1          -1.4200     0.5090    -0.0360 c6         1 9RN       0.309900
     11 O1          -2.6930     0.2850     0.4490 oh         1 9RN      -0.587800
     12 H1          -1.3400    -0.8460    -1.6900 h1         1 9RN       0.055700
     13 H2           0.7560    -1.2230     1.3540 h1         1 9RN       0.088700
     14 H3           1.2690     1.3920     1.6440 h1         1 9RN       0.093700
     15 H4           0.5950     2.3640    -0.8170 h1         1 9RN       0.059700
     16 H5           2.2400     1.7860    -0.5300 h1         1 9RN       0.059700
     17 H6           2.9730    -0.5310     1.3890 ho         1 9RN       0.407000
     18 H7           0.9960    -1.6150    -1.3180 h1         1 9RN       0.109700
     19 H8          -2.2060    -1.9830     0.1400 ho         1 9RN       0.427000
     20 H9          -1.4330     1.2910    -0.8090 h2         1 9RN       0.034700
     21 H10         -3.1520     1.1250     0.5570 ho         1 9RN       0.425000
@<TRIPOS>BOND
     1     1     8 1   
     2     1     9 1   
     3     1    10 1   
     4     1    12 1   
     5     2     3 1   
     6     2     5 1   
     7     2     8 1   
     8     2    13 1   
     9     3     4 1   
    10     3     6 1   
    11     3    14 1   
    12     4     7 1   
    13     4    15 1   
    14     4    16 1   
    15     5    17 1   
    16     6    10 1   
    17     7     8 1   
    18     8    18 1   
    19     9    19 1   
    20    10    11 1   
    21    10    20 1   
    22    11    21 1   
@<TRIPOS>SUBSTRUCTURE
     1 9RN         1 TEMP              0 ****  ****    0 ROOT
