@<TRIPOS>MOLECULE
9RO
   82    85     1     0     0
SMALL
bcc


@<TRIPOS>ATOM
      1 O36        -10.6380     1.8300    -2.4520 oh         1 9RO      -0.494100
      2 C33         -9.6710     1.3550    -1.6380 ca         1 9RO       0.142100
      3 C32         -9.5910     0.0170    -1.2670 ca         1 9RO      -0.197000
      4 C31         -8.5710    -0.4070    -0.4250 ca         1 9RO      -0.074000
      5 C34         -8.7220     2.2560    -1.1570 ca         1 9RO      -0.197000
      6 C35         -7.7080     1.8140    -0.3240 ca         1 9RO      -0.074000
      7 C30         -7.6120     0.4760     0.0530 ca         1 9RO      -0.160300
      8 C27         -6.4750    -0.0110     0.9220 c3         1 9RO       0.200400
      9 O28         -6.2290     0.8480     2.0110 os         1 9RO      -0.405600
     10 C29         -7.2550     0.8510     2.9730 c3         1 9RO       0.121700
     11 C26         -5.1840    -0.1350     0.1210 c3         1 9RO      -0.069400
     12 C25         -4.0270    -0.7500     0.9000 c3         1 9RO      -0.072400
     13 C24         -2.7920    -0.9400     0.0250 c3         1 9RO      -0.077400
     14 C21         -1.5340    -1.4080     0.7720 c3         1 9RO      -0.047700
     15 C22         -1.7620    -2.7900     1.3790 c3         1 9RO      -0.086100
     16 C20         -0.3260    -1.3490    -0.1770 c5         1 9RO      -0.053700
     17 C16          1.0580    -1.8130     0.3370 c5         1 9RO      -0.035000
     18 C23          1.3480    -1.2220     1.7190 c3         1 9RO      -0.079100
     19 C15          1.3110    -3.3230     0.3230 c6         1 9RO      -0.062400
     20 C14          2.7880    -3.6530     0.5430 c6         1 9RO      -0.072400
     21 C13          3.7110    -2.9210    -0.4380 c6         1 9RO      -0.042200
     22 C19         -0.0620     0.0950    -0.6840 c5         1 9RO      -0.077400
     23 C18          1.4570     0.2410    -0.8900 c5         1 9RO      -0.071400
     24 C17          1.9770    -1.1800    -0.7410 c5         1 9RO      -0.035500
     25 C12          3.4250    -1.4450    -0.4740 c2         1 9RO      -0.080400
     26 C11          4.3270    -0.4690    -0.2780 ce         1 9RO      -0.139000
     27 C10          5.7350    -0.6510     0.0250 ce         1 9RO      -0.111000
     28 C4           6.6380     0.3140     0.2630 c2         1 9RO      -0.106400
     29 C3           8.0650    -0.0220     0.5820 c6         1 9RO      -0.032200
     30 C2           9.0250     0.6740    -0.3810 c6         1 9RO       0.188800
     31 O9           8.8350     0.0980    -1.6590 oh         1 9RO      -0.591300
     32 C5           6.3610     1.7900     0.2380 c6         1 9RO      -0.032200
     33 C6           7.3050     2.5040    -0.7360 c6         1 9RO       0.188800
     34 O8           7.0280     3.8800    -0.6760 oh         1 9RO      -0.591300
     35 C1           8.7320     2.1540    -0.3900 c2         1 9RO      -0.198400
     36 C7           9.6570     3.0500    -0.0650 c2         1 9RO      -0.198000
     37 H1         -11.2340     1.1190    -2.7110 ho         1 9RO       0.425000
     38 H2         -10.3250    -0.6960    -1.6270 ha         1 9RO       0.139000
     39 H3          -8.5290    -1.4520    -0.1400 ha         1 9RO       0.136000
     40 H4          -8.7820     3.3000    -1.4390 ha         1 9RO       0.139000
     41 H5          -6.9840     2.5310     0.0430 ha         1 9RO       0.136000
     42 H6          -6.7410    -1.0140     1.2970 h1         1 9RO       0.032700
     43 H7          -6.9140     1.4450     3.8200 h1         1 9RO       0.029367
     44 H8          -8.1840     1.2920     2.5980 h1         1 9RO       0.029367
     45 H9          -7.4820    -0.1610     3.3290 h1         1 9RO       0.029367
     46 H10         -5.4000    -0.7530    -0.7560 hc         1 9RO       0.049200
     47 H11         -4.8990     0.8500    -0.2650 hc         1 9RO       0.049200
     48 H12         -3.7690    -0.1150     1.7520 hc         1 9RO       0.044700
     49 H13         -4.3550    -1.7060     1.3170 hc         1 9RO       0.044700
     50 H14         -3.0140    -1.6550    -0.7760 hc         1 9RO       0.037200
     51 H15         -2.5840     0.0120    -0.4730 hc         1 9RO       0.037200
     52 H16         -1.3580    -0.6980     1.5900 hc         1 9RO       0.048700
     53 H17         -1.8400    -3.5540     0.6020 hc         1 9RO       0.032033
     54 H18         -0.9590    -3.0820     2.0540 hc         1 9RO       0.032033
     55 H19         -2.6830    -2.8190     1.9610 hc         1 9RO       0.032033
     56 H20         -0.5690    -1.9840    -1.0410 hc         1 9RO       0.043700
     57 H21          0.7650    -1.7280     2.4900 hc         1 9RO       0.034033
     58 H22          2.3980    -1.3200     1.9960 hc         1 9RO       0.034033
     59 H23          1.1030    -0.1600     1.7760 hc         1 9RO       0.034033
     60 H24          0.7150    -3.8390     1.0760 hc         1 9RO       0.040200
     61 H25          0.9950    -3.7210    -0.6490 hc         1 9RO       0.040200
     62 H26          3.0770    -3.4010     1.5670 hc         1 9RO       0.039700
     63 H27          2.9410    -4.7300     0.4430 hc         1 9RO       0.039700
     64 H28          4.7500    -3.1410    -0.1970 hc         1 9RO       0.046200
     65 H29          3.5330    -3.3220    -1.4440 hc         1 9RO       0.046200
     66 H30         -0.6080     0.2950    -1.6070 hc         1 9RO       0.041200
     67 H31         -0.4210     0.8220     0.0480 hc         1 9RO       0.041200
     68 H32          1.7130     0.6690    -1.8600 hc         1 9RO       0.044700
     69 H33          1.8840     0.9020    -0.1340 hc         1 9RO       0.044700
     70 H34          1.7290    -1.7110    -1.6730 hc         1 9RO       0.052700
     71 H35          3.9740     0.5530    -0.3470 ha         1 9RO       0.123000
     72 H36          6.0970    -1.6720     0.0810 ha         1 9RO       0.120000
     73 H37          8.3090     0.3250     1.5930 hc         1 9RO       0.058450
     74 H38          8.2340    -1.1020     0.5650 hc         1 9RO       0.058450
     75 H39         10.0530     0.5150    -0.0300 h1         1 9RO       0.042200
     76 H40          9.4440     0.5250    -2.2700 ho         1 9RO       0.402500
     77 H41          5.3300     2.0150    -0.0350 hc         1 9RO       0.058450
     78 H42          6.5290     2.2020     1.2410 hc         1 9RO       0.058450
     79 H43          7.0950     2.1140    -1.7420 h1         1 9RO       0.042200
     80 H44          7.4880     4.3150    -1.4010 ho         1 9RO       0.402500
     81 H45          9.4570     4.1130    -0.0290 ha         1 9RO       0.117500
     82 H46         10.6640     2.7430     0.1900 ha         1 9RO       0.117500
@<TRIPOS>BOND
     1     1     2 1   
     2     1    37 1   
     3     2     3 ar  
     4     2     5 ar  
     5     3     4 ar  
     6     3    38 1   
     7     4     7 ar  
     8     4    39 1   
     9     5     6 ar  
    10     5    40 1   
    11     6     7 ar  
    12     6    41 1   
    13     7     8 1   
    14     8     9 1   
    15     8    11 1   
    16     8    42 1   
    17     9    10 1   
    18    10    43 1   
    19    10    44 1   
    20    10    45 1   
    21    11    12 1   
    22    11    46 1   
    23    11    47 1   
    24    12    13 1   
    25    12    48 1   
    26    12    49 1   
    27    13    14 1   
    28    13    50 1   
    29    13    51 1   
    30    14    15 1   
    31    14    16 1   
    32    14    52 1   
    33    15    53 1   
    34    15    54 1   
    35    15    55 1   
    36    16    17 1   
    37    16    22 1   
    38    16    56 1   
    39    17    18 1   
    40    17    19 1   
    41    17    24 1   
    42    18    57 1   
    43    18    58 1   
    44    18    59 1   
    45    19    20 1   
    46    19    60 1   
    47    19    61 1   
    48    20    21 1   
    49    20    62 1   
    50    20    63 1   
    51    21    25 1   
    52    21    64 1   
    53    21    65 1   
    54    22    23 1   
    55    22    66 1   
    56    22    67 1   
    57    23    24 1   
    58    23    68 1   
    59    23    69 1   
    60    24    25 1   
    61    24    70 1   
    62    25    26 2   
    63    26    27 1   
    64    26    71 1   
    65    27    28 2   
    66    27    72 1   
    67    28    29 1   
    68    28    32 1   
    69    29    30 1   
    70    29    73 1   
    71    29    74 1   
    72    30    31 1   
    73    30    35 1   
    74    30    75 1   
    75    31    76 1   
    76    32    33 1   
    77    32    77 1   
    78    32    78 1   
    79    33    34 1   
    80    33    35 1   
    81    33    79 1   
    82    34    80 1   
    83    35    36 2   
    84    36    81 1   
    85    36    82 1   
@<TRIPOS>SUBSTRUCTURE
     1 9RO         1 TEMP              0 ****  ****    0 ROOT
