@<TRIPOS>MOLECULE
9RO
   82    85     1     0     0
SMALL
No Charge or Current Charge


@<TRIPOS>ATOM
      1 O36        -10.7840     2.1560    -2.4920 oh         1 9RO      -0.533100
      2 C33         -9.8000     1.6220    -1.7170 ca         1 9RO       0.142100
      3 C32         -9.8830     0.2890    -1.2860 ca         1 9RO      -0.179000
      4 C31         -8.8630    -0.2560    -0.4850 ca         1 9RO      -0.056000
      5 C34         -8.7030     2.4110    -1.3470 ca         1 9RO      -0.179000
      6 C35         -7.6820     1.8700    -0.5460 ca         1 9RO      -0.056000
      7 C30         -7.7550     0.5300    -0.1110 ca         1 9RO      -0.160300
      8 C27         -6.6510    -0.0710     0.7620 c3         1 9RO       0.223600
      9 O28         -6.4720     0.7410     1.9400 os         1 9RO      -0.452000
     10 C29         -7.5790     0.7420     2.8600 c3         1 9RO       0.144900
     11 C26         -5.2940    -0.1360     0.0220 c3         1 9RO      -0.069400
     12 C25         -4.1870    -0.8780     0.8080 c3         1 9RO      -0.072400
     13 C24         -2.8520    -0.9680     0.0250 c3         1 9RO      -0.077400
     14 C21         -1.6340    -1.5470     0.8160 c3         1 9RO      -0.047700
     15 C22         -1.8900    -3.0240     1.2160 c3         1 9RO      -0.086100
     16 C20         -0.2850    -1.3600    -0.0180 c5         1 9RO      -0.053700
     17 C16          1.0740    -1.8780     0.5910 c5         1 9RO      -0.035000
     18 C23          1.3090    -1.3990     2.0630 c3         1 9RO      -0.079100
     19 C15          1.3620    -3.4360     0.5250 c6         1 9RO      -0.062400
     20 C14          2.8660    -3.8410     0.7930 c6         1 9RO      -0.072400
     21 C13          3.8680    -3.0650    -0.1100 c6         1 9RO      -0.042200
     22 C19          0.0480     0.1550    -0.3220 c5         1 9RO      -0.077400
     23 C18          1.6060     0.2650    -0.4160 c5         1 9RO      -0.071400
     24 C17          2.0430    -1.2230    -0.4810 c5         1 9RO      -0.035500
     25 C12          3.5520    -1.5650    -0.2250 c2         1 9RO      -0.080400
     26 C11          4.4600    -0.5490    -0.2130 ce         1 9RO      -0.189000
     27 C10          5.9230    -0.7040    -0.0710 ce         1 9RO      -0.161000
     28 C4           6.8320     0.2870     0.1230 c2         1 9RO      -0.106400
     29 C3           8.3260    -0.0160     0.2290 c6         1 9RO      -0.032200
     30 C2           9.1810     0.8390    -0.7440 c6         1 9RO       0.212000
     31 O9           9.0090     0.4020    -2.0920 oh         1 9RO      -0.653500
     32 C5           6.5260     1.7800     0.2740 c6         1 9RO      -0.032200
     33 C6           7.3230     2.6160    -0.7560 c6         1 9RO       0.212000
     34 O8           7.0470     4.0070    -0.5670 oh         1 9RO      -0.653500
     35 C1           8.8310     2.3240    -0.6590 c2         1 9RO      -0.198400
     36 C7           9.7920     3.2610    -0.5140 c2         1 9RO      -0.298000
     37 H1         -11.4640     1.4660    -2.6490 ho         1 9RO       0.464000
     38 H2         -10.7310    -0.3310    -1.5670 ha         1 9RO       0.121000
     39 H3          -8.9360    -1.2910    -0.1560 ha         1 9RO       0.118000
     40 H4          -8.6410     3.4440    -1.6790 ha         1 9RO       0.121000
     41 H5          -6.8370     2.4930    -0.2600 ha         1 9RO       0.118000
     42 H6          -6.9330    -1.0940     1.0480 h1         1 9RO       0.032700
     43 H7          -7.3380     1.3470     3.7430 h1         1 9RO       0.029367
     44 H8          -8.4800     1.1640     2.3960 h1         1 9RO       0.029367
     45 H9          -7.8070    -0.2780     3.1970 h1         1 9RO       0.029367
     46 H10         -5.4470    -0.6450    -0.9380 hc         1 9RO       0.049200
     47 H11         -4.9560     0.8810    -0.2110 hc         1 9RO       0.049200
     48 H12         -4.0110    -0.3630     1.7600 hc         1 9RO       0.044700
     49 H13         -4.5540    -1.8830     1.0470 hc         1 9RO       0.044700
     50 H14         -3.0080    -1.5640    -0.8830 hc         1 9RO       0.037200
     51 H15         -2.6110     0.0460    -0.3130 hc         1 9RO       0.037200
     52 H16         -1.6120    -0.9860     1.7760 hc         1 9RO       0.048700
     53 H17         -1.7980    -3.6890     0.3490 hc         1 9RO       0.032033
     54 H18         -1.1830    -3.3420     1.9860 hc         1 9RO       0.032033
     55 H19         -2.8840    -3.1670     1.6510 hc         1 9RO       0.032033
     56 H20         -0.4650    -1.8790    -0.9690 hc         1 9RO       0.043700
     57 H21          0.7340    -2.0070     2.7710 hc         1 9RO       0.034033
     58 H22          2.3640    -1.4710     2.3510 hc         1 9RO       0.034033
     59 H23          1.0040    -0.3600     2.2250 hc         1 9RO       0.034033
     60 H24          0.7380    -3.9810     1.2400 hc         1 9RO       0.040200
     61 H25          1.0710    -3.8110    -0.4660 hc         1 9RO       0.040200
     62 H26          3.1120    -3.6530     1.8470 hc         1 9RO       0.039700
     63 H27          2.9940    -4.9220     0.6430 hc         1 9RO       0.039700
     64 H28          4.8780    -3.2430     0.2750 hc         1 9RO       0.046200
     65 H29          3.8450    -3.4990    -1.1180 hc         1 9RO       0.046200
     66 H30         -0.4270     0.4790    -1.2550 hc         1 9RO       0.041200
     67 H31         -0.3300     0.8190     0.4640 hc         1 9RO       0.041200
     68 H32          1.9230     0.8280    -1.3020 hc         1 9RO       0.044700
     69 H33          2.0130     0.7840     0.4590 hc         1 9RO       0.044700
     70 H34          1.8060    -1.6090    -1.4810 hc         1 9RO       0.052700
     71 H35          4.1210     0.4720    -0.3480 ha         1 9RO       0.173000
     72 H36          6.3040    -1.7210    -0.1530 ha         1 9RO       0.170000
     73 H37          8.6530     0.1870     1.2580 hc         1 9RO       0.058450
     74 H38          8.5270    -1.0820     0.0560 hc         1 9RO       0.058450
     75 H39         10.2350     0.7060    -0.4560 h1         1 9RO       0.042200
     76 H40          9.5030     1.0450    -2.6450 ho         1 9RO       0.441500
     77 H41          5.4600     2.0050     0.1740 hc         1 9RO       0.058450
     78 H42          6.8030     2.0970     1.2890 hc         1 9RO       0.058450
     79 H43          6.9840     2.3160    -1.7590 h1         1 9RO       0.042200
     80 H44          7.5590     4.4760    -1.2600 ho         1 9RO       0.441500
     81 H45          9.5770     4.3270    -0.4420 ha         1 9RO       0.167500
     82 H46         10.8470     2.9900    -0.4520 ha         1 9RO       0.167500
@<TRIPOS>BOND
     1     1     2 1   
     2     1    37 1   
     3     2     3 ar  
     4     2     5 ar  
     5     3     4 ar  
     6     3    38 1   
     7     4     7 ar  
     8     4    39 1   
     9     5     6 ar  
    10     5    40 1   
    11     6     7 ar  
    12     6    41 1   
    13     7     8 1   
    14     8     9 1   
    15     8    11 1   
    16     8    42 1   
    17     9    10 1   
    18    10    43 1   
    19    10    44 1   
    20    10    45 1   
    21    11    12 1   
    22    11    46 1   
    23    11    47 1   
    24    12    13 1   
    25    12    48 1   
    26    12    49 1   
    27    13    14 1   
    28    13    50 1   
    29    13    51 1   
    30    14    15 1   
    31    14    16 1   
    32    14    52 1   
    33    15    53 1   
    34    15    54 1   
    35    15    55 1   
    36    16    17 1   
    37    16    22 1   
    38    16    56 1   
    39    17    18 1   
    40    17    19 1   
    41    17    24 1   
    42    18    57 1   
    43    18    58 1   
    44    18    59 1   
    45    19    20 1   
    46    19    60 1   
    47    19    61 1   
    48    20    21 1   
    49    20    62 1   
    50    20    63 1   
    51    21    25 1   
    52    21    64 1   
    53    21    65 1   
    54    22    23 1   
    55    22    66 1   
    56    22    67 1   
    57    23    24 1   
    58    23    68 1   
    59    23    69 1   
    60    24    25 1   
    61    24    70 1   
    62    25    26 2   
    63    26    27 1   
    64    26    71 1   
    65    27    28 2   
    66    27    72 1   
    67    28    29 1   
    68    28    32 1   
    69    29    30 1   
    70    29    73 1   
    71    29    74 1   
    72    30    31 1   
    73    30    35 1   
    74    30    75 1   
    75    31    76 1   
    76    32    33 1   
    77    32    77 1   
    78    32    78 1   
    79    33    34 1   
    80    33    35 1   
    81    33    79 1   
    82    34    80 1   
    83    35    36 2   
    84    36    81 1   
    85    36    82 1   
@<TRIPOS>SUBSTRUCTURE
     1 9RO         1 TEMP              0 ****  ****    0 ROOT
