@<TRIPOS>MOLECULE
9RQ
   43    45     1     0     0
SMALL
bcc


@<TRIPOS>ATOM
      1 C4          -6.2950    -0.6080    -0.2120 ca         1 9RQ      -0.118500
      2 C14          4.6000     0.6100     1.2080 c3         1 9RQ      -0.211400
      3 C5          -7.4210    -0.1490    -0.8820 ca         1 9RQ      -0.140000
      4 C6          -7.5130     1.1840    -1.2590 ca         1 9RQ      -0.161000
      5 C11          1.6050     0.2490     1.1200 ca         1 9RQ      -0.021000
      6 C7          -6.4680     2.0490    -0.9590 ca         1 9RQ      -0.140000
      7 C8          -5.3440     1.5860    -0.2890 ca         1 9RQ      -0.118500
      8 C9          -0.2820    -1.1080     0.5010 ca         1 9RQ       0.272100
      9 C10          0.2450     0.0450     1.0970 ca         1 9RQ      -0.202000
     10 C12          2.4920    -0.6730     0.5480 ca         1 9RQ      -0.180800
     11 C13          3.9290    -0.5480     0.5550 cc         1 9RQ       0.133600
     12 C3          -5.2440     0.2510     0.1030 ca         1 9RQ      -0.018300
     13 P1          -2.7160    -0.5310    -0.4520 p5         1 9RQ       1.245600
     14 C1          -4.0220    -0.2720     0.8140 c3         1 9RQ      -0.210600
     15 C2          -3.5620     0.6200     1.9640 c3         1 9RQ      -0.047100
     16 O2          -1.6000    -1.3670     0.5260 os         1 9RQ      -0.500500
     17 S1           4.8180     2.0020     0.0540 s6         1 9RQ       1.208800
     18 O3           5.4470     3.0530     0.8740 o          1 9RQ      -0.686200
     19 O4           5.6940     1.4840    -1.0100 o          1 9RQ      -0.686200
     20 O5           3.4670     2.3510    -0.4140 o          1 9RQ      -0.686200
     21 C15          4.6720    -1.5020    -0.0500 cd         1 9RQ      -0.340200
     22 C16          4.0770    -2.6510    -0.6850 c          1 9RQ       0.761800
     23 O6           2.7230    -2.7430    -0.6360 os         1 9RQ      -0.352200
     24 O7           4.6700    -3.5410    -1.2460 o          1 9RQ      -0.638500
     25 C17          1.9400    -1.8060    -0.0520 ca         1 9RQ       0.182100
     26 C18          0.5720    -2.0310    -0.0860 ca         1 9RQ      -0.229000
     27 O8          -2.0870     0.7690    -0.8560 o          1 9RQ      -0.791000
     28 H5          -6.2340    -1.6490     0.0810 ha         1 9RQ       0.138500
     29 H6          -8.2260    -0.8360    -1.1120 ha         1 9RQ       0.108000
     30 H7          -8.3900     1.5460    -1.7790 ha         1 9RQ       0.102000
     31 H11          1.9870     1.1500     1.5770 ha         1 9RQ       0.140000
     32 H8          -6.5270     3.0900    -1.2510 ha         1 9RQ       0.108000
     33 H9          -4.5380     2.2760    -0.0730 ha         1 9RQ       0.138500
     34 H10         -0.4170     0.7670     1.5540 ha         1 9RQ       0.138000
     35 H3          -3.2260     1.5960     1.6180 hc         1 9RQ       0.023700
     36 H4          -4.3750     0.7770     2.6750 hc         1 9RQ       0.023700
     37 H2          -2.7360     0.1620     2.5080 hc         1 9RQ       0.023700
     38 H15          5.7520    -1.4470    -0.0630 ha         1 9RQ       0.154000
     39 H16          0.1780    -2.9260    -0.5510 ha         1 9RQ       0.152000
     40 H1          -4.2690    -1.2600     1.2160 hc         1 9RQ       0.062700
     41 H12          4.0420     0.9770     2.0690 h1         1 9RQ       0.076200
     42 H13          5.5970     0.3300     1.5470 h1         1 9RQ       0.076200
     43 O1          -3.1890    -1.5170    -1.4770 o          1 9RQ      -0.791000
@<TRIPOS>BOND
     1     1     3 ar  
     2     1    12 ar  
     3     1    28 1   
     4     2    11 1   
     5     2    17 1   
     6     2    41 1   
     7     2    42 1   
     8     3     4 ar  
     9     3    29 1   
    10     4     6 ar  
    11     4    30 1   
    12     5     9 ar  
    13     5    10 ar  
    14     5    31 1   
    15     6     7 ar  
    16     6    32 1   
    17     7    12 ar  
    18     7    33 1   
    19     8     9 ar  
    20     8    16 1   
    21     8    26 ar  
    22     9    34 1   
    23    10    11 1   
    24    10    25 ar  
    25    11    21 2   
    26    12    14 1   
    27    13    14 1   
    28    13    16 1   
    29    13    27 1   
    30    13    43 1   
    31    14    15 1   
    32    14    40 1   
    33    15    35 1   
    34    15    36 1   
    35    15    37 1   
    36    17    18 1   
    37    17    19 1   
    38    17    20 1   
    39    21    22 1   
    40    21    38 1   
    41    22    23 1   
    42    22    24 2   
    43    23    25 1   
    44    25    26 ar  
    45    26    39 1   
@<TRIPOS>SUBSTRUCTURE
     1 9RQ         1 TEMP              0 ****  ****    0 ROOT
