@<TRIPOS>MOLECULE
9RQ
   43    45     1     0     0
SMALL
No Charge or Current Charge


@<TRIPOS>ATOM
      1 C4          -6.2250    -0.6480     0.1630 ca         1 9RQ      -0.100500
      2 C14          4.2070     0.9070     1.4290 c3         1 9RQ      -0.322200
      3 C5          -7.5260    -0.1170     0.0970 ca         1 9RQ      -0.122000
      4 C6          -7.7140     1.2680    -0.0420 ca         1 9RQ      -0.143000
      5 C11          1.4020     0.4680     0.2770 ca         1 9RQ      -0.003000
      6 C7          -6.6010     2.1210    -0.1160 ca         1 9RQ      -0.122000
      7 C8          -5.3010     1.5900    -0.0490 ca         1 9RQ      -0.100500
      8 C9          -0.3050    -1.0230    -0.6310 ca         1 9RQ       0.272100
      9 C10          0.1060     0.2620    -0.2280 ca         1 9RQ      -0.184000
     10 C12          2.3140    -0.6050     0.3930 ca         1 9RQ      -0.180800
     11 C13          3.6720    -0.4050     0.9240 cc         1 9RQ       0.133600
     12 C3          -5.1020     0.2010     0.0910 ca         1 9RQ      -0.018300
     13 P1          -2.8140    -0.3590    -1.4690 p5         1 9RQ       1.403400
     14 C1          -3.6910    -0.3830     0.1680 c3         1 9RQ      -0.368400
     15 C2          -2.8930     0.2230     1.3490 c3         1 9RQ      -0.047100
     16 O2          -1.5520    -1.3130    -1.1270 os         1 9RQ      -0.500500
     17 S1           5.0380     1.9110     0.1820 s6         1 9RQ       1.319600
     18 O3           5.4630     3.1010     0.9330 o          1 9RQ      -0.686200
     19 O4           6.1430     1.0600    -0.2830 o          1 9RQ      -0.686200
     20 O5           3.9980     2.1690    -0.8250 o          1 9RQ      -0.686200
     21 C15          4.4340    -1.5490     0.9900 cd         1 9RQ      -0.390200
     22 C16          3.9900    -2.8790     0.5580 c          1 9RQ       0.686300
     23 O6           2.7220    -2.9600     0.0720 os         1 9RQ      -0.352200
     24 O7           4.7140    -3.8600     0.6310 o          1 9RQ      -0.563000
     25 C17          1.8850    -1.8830    -0.0150 ca         1 9RQ       0.182100
     26 C18          0.5940    -2.0880    -0.5180 ca         1 9RQ      -0.211000
     27 O8          -2.4280     1.0340    -1.8520 o          1 9RQ      -0.791000
     28 H5          -6.0930    -1.7220     0.2710 ha         1 9RQ       0.120500
     29 H6          -8.3860    -0.7800     0.1530 ha         1 9RQ       0.090000
     30 H7          -8.7200     1.6780    -0.0940 ha         1 9RQ       0.084000
     31 H11          1.6820     1.4750     0.5730 ha         1 9RQ       0.122000
     32 H8          -6.7450     3.1930    -0.2240 ha         1 9RQ       0.090000
     33 H9          -4.4480     2.2620    -0.1100 ha         1 9RQ       0.120500
     34 H10         -0.5580     1.1160    -0.2860 ha         1 9RQ       0.120000
     35 H3          -2.6210     1.2670     1.1530 hc         1 9RQ       0.023700
     36 H4          -3.4900     0.1930     2.2690 hc         1 9RQ       0.023700
     37 H2          -1.9750    -0.3460     1.5370 hc         1 9RQ       0.023700
     38 H15          5.4450    -1.5300     1.3730 ha         1 9RQ       0.204000
     39 H16          0.2870    -3.0830    -0.8230 ha         1 9RQ       0.134000
     40 H1          -3.7640    -1.4600     0.3580 hc         1 9RQ       0.062700
     41 H12          3.4140     1.5250     1.8570 h1         1 9RQ       0.076200
     42 H13          4.9560     0.7280     2.2070 h1         1 9RQ       0.076200
     43 O1          -3.6880    -1.0030    -2.4980 o          1 9RQ      -0.791000
@<TRIPOS>BOND
     1     1     3 ar  
     2     1    12 ar  
     3     1    28 1   
     4     2    11 1   
     5     2    17 1   
     6     2    41 1   
     7     2    42 1   
     8     3     4 ar  
     9     3    29 1   
    10     4     6 ar  
    11     4    30 1   
    12     5     9 ar  
    13     5    10 ar  
    14     5    31 1   
    15     6     7 ar  
    16     6    32 1   
    17     7    12 ar  
    18     7    33 1   
    19     8     9 ar  
    20     8    16 1   
    21     8    26 ar  
    22     9    34 1   
    23    10    11 1   
    24    10    25 ar  
    25    11    21 2   
    26    12    14 1   
    27    13    14 1   
    28    13    16 1   
    29    13    27 1   
    30    13    43 1   
    31    14    15 1   
    32    14    40 1   
    33    15    35 1   
    34    15    36 1   
    35    15    37 1   
    36    17    18 1   
    37    17    19 1   
    38    17    20 1   
    39    21    22 1   
    40    21    38 1   
    41    22    23 1   
    42    22    24 2   
    43    23    25 1   
    44    25    26 ar  
    45    26    39 1   
@<TRIPOS>SUBSTRUCTURE
     1 9RQ         1 TEMP              0 ****  ****    0 ROOT
