@<TRIPOS>MOLECULE
9RR
   69    72     1     0     0
SMALL
bcc


@<TRIPOS>ATOM
      1 N37         11.3270     1.9230    -0.5000 nv         1 9RR      -0.949500
      2 C31         10.0820     1.4070    -0.3640 ca         1 9RR       0.940400
      3 N30          9.4080     1.1690    -1.4880 nb         1 9RR      -0.860500
      4 C29          8.1670     0.7100    -1.3570 ca         1 9RR       0.756200
      5 N36          7.4710     0.5000    -2.4900 nv         1 9RR      -0.963500
      6 N32          9.6360     1.2210     0.8760 nb         1 9RR      -0.816500
      7 C33          8.3890     0.7560     1.0010 ca         1 9RR       0.535600
      8 C34          7.9260     0.5160     2.4090 c3         1 9RR      -0.135200
      9 C35          8.4060    -0.8380     2.9280 c3         1 9RR      -0.081600
     10 C28          7.5840     0.4750    -0.0890 cp         1 9RR      -0.403600
     11 C25          6.2020    -0.0420     0.0180 cp         1 9RR      -0.051500
     12 C24          5.9460    -1.4130     0.1040 ca         1 9RR      -0.084500
     13 C23          4.6550    -1.9020     0.1750 ca         1 9RR      -0.194250
     14 C26          5.1090     0.8180    -0.0010 ca         1 9RR      -0.084500
     15 C27          3.8040     0.3460     0.0700 ca         1 9RR      -0.194250
     16 C22          3.5700    -1.0240     0.1560 ca         1 9RR       0.143600
     17 O21          2.3470    -1.5860     0.2210 os         1 9RR      -0.323400
     18 C20          1.2030    -0.7540     0.1430 c3         1 9RR       0.144400
     19 C19         -0.0160    -1.6550     0.1490 c3         1 9RR      -0.088400
     20 C18         -1.2860    -0.8310     0.0700 c3         1 9RR       0.144400
     21 O17         -2.3790    -1.7310     0.0520 os         1 9RR      -0.323400
     22 C14         -3.6300    -1.2360    -0.0240 ca         1 9RR       0.143600
     23 C13         -3.9400     0.1200    -0.0630 ca         1 9RR      -0.194250
     24 C12         -5.2700     0.5190    -0.1430 ca         1 9RR      -0.084500
     25 C15         -4.6640    -2.1740    -0.0680 ca         1 9RR      -0.194250
     26 C16         -5.9790    -1.7570    -0.1460 ca         1 9RR      -0.084500
     27 C11         -6.3110    -0.4000    -0.1780 cp         1 9RR      -0.051500
     28 C5          -7.7220     0.0360    -0.2710 cp         1 9RR      -0.403600
     29 C6          -8.4780     0.4290     0.8190 ca         1 9RR       0.535600
     30 C9          -7.9030     0.4720     2.2060 c3         1 9RR      -0.135200
     31 C10         -7.4950     1.8900     2.6000 c3         1 9RR      -0.081600
     32 N1          -9.7500     0.8240     0.7120 nb         1 9RR      -0.816500
     33 C4          -8.3840     0.0760    -1.5220 ca         1 9RR       0.756200
     34 N8          -7.7570    -0.3060    -2.6500 nv         1 9RR      -0.963500
     35 N3          -9.6480     0.4690    -1.6360 nb         1 9RR      -0.860500
     36 C2         -10.2750     0.8220    -0.5130 ca         1 9RR       0.940400
     37 N7         -11.5720     1.1810    -0.6270 nv         1 9RR      -0.949500
     38 H1          11.9360     1.8980     0.2990 hn         1 9RR       0.434800
     39 H2          11.7690     1.8610    -1.4010 hn         1 9RR       0.434800
     40 H3           7.9550     0.5420    -3.3700 hn         1 9RR       0.437300
     41 H4           6.5990     0.0020    -2.4690 hn         1 9RR       0.437300
     42 H5           8.3270     1.3100     3.0420 hc         1 9RR       0.059450
     43 H6           6.8380     0.5710     2.4690 hc         1 9RR       0.059450
     44 H7           7.9690    -1.6580     2.3580 hc         1 9RR       0.036033
     45 H8           9.4910    -0.9200     2.8590 hc         1 9RR       0.036033
     46 H9           8.1260    -0.9710     3.9730 hc         1 9RR       0.036033
     47 H10          6.7740    -2.1100     0.1110 ha         1 9RR       0.136750
     48 H11          4.4780    -2.9680     0.2400 ha         1 9RR       0.140000
     49 H12          5.2740     1.8860    -0.0690 ha         1 9RR       0.136750
     50 H13          2.9920     1.0600     0.0560 ha         1 9RR       0.140000
     51 H14          1.1730    -0.0610     0.9910 h1         1 9RR       0.034450
     52 H15          1.2280    -0.1540    -0.7740 h1         1 9RR       0.034450
     53 H16          0.0310    -2.3370    -0.7040 hc         1 9RR       0.072700
     54 H17         -0.0250    -2.2570     1.0610 hc         1 9RR       0.072700
     55 H18         -1.3580    -0.1550     0.9310 h1         1 9RR       0.034450
     56 H19         -1.2840    -0.2120    -0.8350 h1         1 9RR       0.034450
     57 H20         -3.1710     0.8790    -0.0360 ha         1 9RR       0.140000
     58 H21         -5.4930     1.5790    -0.1800 ha         1 9RR       0.136750
     59 H22         -4.4260    -3.2310    -0.0400 ha         1 9RR       0.140000
     60 H23         -6.7670    -2.4990    -0.1760 ha         1 9RR       0.136750
     61 H24         -8.6610     0.1070     2.9020 hc         1 9RR       0.059450
     62 H25         -7.0440    -0.1940     2.2830 hc         1 9RR       0.059450
     63 H26         -6.6940     2.2620     1.9600 hc         1 9RR       0.036033
     64 H27         -8.3390     2.5750     2.5150 hc         1 9RR       0.036033
     65 H28         -7.1390     1.9170     3.6290 hc         1 9RR       0.036033
     66 H29         -6.7610    -0.4370    -2.6560 hn         1 9RR       0.437300
     67 H30         -8.1990    -0.1220    -3.5350 hn         1 9RR       0.437300
     68 H31        -11.9400     1.3760    -1.5420 hn         1 9RR       0.434800
     69 H32        -12.0160     1.6320     0.1540 hn         1 9RR       0.434800
@<TRIPOS>BOND
     1     1     2 1   
     2     1    38 1   
     3     1    39 1   
     4     2     3 ar  
     5     2     6 ar  
     6     3     4 ar  
     7     4     5 1   
     8     4    10 ar  
     9     5    40 1   
    10     5    41 1   
    11     6     7 ar  
    12     7     8 1   
    13     7    10 ar  
    14     8     9 1   
    15     8    42 1   
    16     8    43 1   
    17     9    44 1   
    18     9    45 1   
    19     9    46 1   
    20    10    11 1   
    21    11    12 ar  
    22    11    14 ar  
    23    12    13 ar  
    24    12    47 1   
    25    13    16 ar  
    26    13    48 1   
    27    14    15 ar  
    28    14    49 1   
    29    15    16 ar  
    30    15    50 1   
    31    16    17 1   
    32    17    18 1   
    33    18    19 1   
    34    18    51 1   
    35    18    52 1   
    36    19    20 1   
    37    19    53 1   
    38    19    54 1   
    39    20    21 1   
    40    20    55 1   
    41    20    56 1   
    42    21    22 1   
    43    22    23 ar  
    44    22    25 ar  
    45    23    24 ar  
    46    23    57 1   
    47    24    27 ar  
    48    24    58 1   
    49    25    26 ar  
    50    25    59 1   
    51    26    27 ar  
    52    26    60 1   
    53    27    28 1   
    54    28    29 ar  
    55    28    33 ar  
    56    29    30 1   
    57    29    32 ar  
    58    30    31 1   
    59    30    61 1   
    60    30    62 1   
    61    31    63 1   
    62    31    64 1   
    63    31    65 1   
    64    32    36 ar  
    65    33    34 1   
    66    33    35 ar  
    67    34    66 1   
    68    34    67 1   
    69    35    36 ar  
    70    36    37 1   
    71    37    68 1   
    72    37    69 1   
@<TRIPOS>SUBSTRUCTURE
     1 9RR         1 TEMP              0 ****  ****    0 ROOT
