@<TRIPOS>MOLECULE
9RR
   69    72     1     0     0
SMALL
No Charge or Current Charge


@<TRIPOS>ATOM
      1 N37         11.6820     1.6020     0.0430 nv         1 9RR      -1.059900
      2 C31         10.3930     1.2000    -0.0020 ca         1 9RR       0.414400
      3 N30          9.9550     0.7810    -1.1890 nb         1 9RR      -0.334500
      4 C29          8.6800     0.3860    -1.2220 ca         1 9RR       0.427900
      5 N36          8.2510    -0.0250    -2.4400 nv         1 9RR      -1.073900
      6 N32          9.7140     1.2680     1.1480 nb         1 9RR      -0.290500
      7 C33          8.4260     0.8690     1.1120 ca         1 9RR       0.207300
      8 C34          7.6850     0.9270     2.4450 c3         1 9RR      -0.135200
      9 C35          7.5920    -0.4500     3.1320 c3         1 9RR      -0.081600
     10 C28          7.8330     0.4000    -0.0920 cp         1 9RR      -0.273000
     11 C25          6.4150    -0.0620    -0.1580 cp         1 9RR      -0.051500
     12 C24          6.1100    -1.4320    -0.3330 ca         1 9RR      -0.066500
     13 C23          4.7760    -1.8690    -0.3930 ca         1 9RR      -0.176250
     14 C26          5.3450     0.8560    -0.0500 ca         1 9RR      -0.066500
     15 C27          4.0090     0.4210    -0.1100 ca         1 9RR      -0.176250
     16 C22          3.7210    -0.9500    -0.2810 ca         1 9RR       0.143600
     17 O21          2.4320    -1.4380    -0.3460 os         1 9RR      -0.346600
     18 C20          1.2830    -0.5810    -0.2380 c3         1 9RR       0.167600
     19 C19          0.0300    -1.4660    -0.3510 c3         1 9RR      -0.088400
     20 C18         -1.2740    -0.6570    -0.2480 c3         1 9RR       0.167600
     21 O17         -2.3690    -1.5810    -0.3660 os         1 9RR      -0.346600
     22 C14         -3.6850    -1.1710    -0.3120 ca         1 9RR       0.143600
     23 C13         -4.0560     0.1810    -0.1410 ca         1 9RR      -0.176250
     24 C12         -5.4150     0.5350    -0.0930 ca         1 9RR      -0.066500
     25 C15         -4.6820    -2.1500    -0.4350 ca         1 9RR      -0.176250
     26 C16         -6.0410    -1.7930    -0.3860 ca         1 9RR      -0.066500
     27 C11         -6.4280    -0.4440    -0.2110 cp         1 9RR      -0.051500
     28 C5          -7.8720    -0.0670    -0.1540 cp         1 9RR      -0.273000
     29 C6          -8.4920     0.4090     1.0340 ca         1 9RR       0.207300
     30 C9          -7.7640     0.5550     2.3690 c3         1 9RR      -0.135200
     31 C10         -7.4260     2.0200     2.7160 c3         1 9RR      -0.081600
     32 N1          -9.8010     0.7370     1.0580 nb         1 9RR      -0.290500
     33 C4          -8.7180    -0.1680    -1.2810 ca         1 9RR       0.427900
     34 N8          -8.2660    -0.5940    -2.4850 nv         1 9RR      -1.073900
     35 N3         -10.0110     0.1630    -1.2620 nb         1 9RR      -0.334500
     36 C2         -10.4730     0.5950    -0.0890 ca         1 9RR       0.414400
     37 N7         -11.7820     0.9320    -0.0580 nv         1 9RR      -1.059900
     38 H1          12.1210     1.7080     0.9540 hn         1 9RR       0.490000
     39 H2          12.2920     1.3580    -0.7340 hn         1 9RR       0.490000
     40 H3           8.9450    -0.2370    -3.1500 hn         1 9RR       0.492500
     41 H4           7.3610    -0.5100    -2.4960 hn         1 9RR       0.492500
     42 H5           8.1840     1.6250     3.1290 hc         1 9RR       0.059450
     43 H6           6.6750     1.3250     2.3040 hc         1 9RR       0.059450
     44 H7           7.0430    -1.1630     2.5060 hc         1 9RR       0.036033
     45 H8           8.5930    -0.8560     3.3220 hc         1 9RR       0.036033
     46 H9           7.0680    -0.3650     4.0920 hc         1 9RR       0.036033
     47 H10          6.9170    -2.1560    -0.4150 ha         1 9RR       0.118750
     48 H11          4.5580    -2.9260    -0.5250 ha         1 9RR       0.122000
     49 H12          5.5590     1.9150     0.0780 ha         1 9RR       0.118750
     50 H13          3.2170     1.1590    -0.0220 ha         1 9RR       0.122000
     51 H14          1.2780    -0.0590     0.7280 h1         1 9RR       0.034450
     52 H15          1.2790     0.1660    -1.0430 h1         1 9RR       0.034450
     53 H16          0.0500    -1.9970    -1.3100 hc         1 9RR       0.072700
     54 H17          0.0500    -2.2200     0.4450 hc         1 9RR       0.072700
     55 H18         -1.3080    -0.1360     0.7180 h1         1 9RR       0.034450
     56 H19         -1.3080     0.0890    -1.0530 h1         1 9RR       0.034450
     57 H20         -3.3100     0.9650    -0.0470 ha         1 9RR       0.122000
     58 H21         -5.6910     1.5800     0.0290 ha         1 9RR       0.118750
     59 H22         -4.4010    -3.1920    -0.5670 ha         1 9RR       0.122000
     60 H23         -6.8030    -2.5630    -0.4790 ha         1 9RR       0.118750
     61 H24         -8.3810     0.1380     3.1740 hc         1 9RR       0.059450
     62 H25         -6.8390    -0.0330     2.3750 hc         1 9RR       0.059450
     63 H26         -6.7920     2.4690     1.9440 hc         1 9RR       0.036033
     64 H27         -8.3410     2.6200     2.8020 hc         1 9RR       0.036033
     65 H28         -6.8920     2.0730     3.6720 hc         1 9RR       0.036033
     66 H29         -7.2610    -0.6380    -2.6220 hn         1 9RR       0.492500
     67 H30         -8.8350    -0.4100    -3.3070 hn         1 9RR       0.492500
     68 H31        -12.2650     1.0560    -0.9440 hn         1 9RR       0.490000
     69 H32        -12.1240     1.4750     0.7300 hn         1 9RR       0.490000
@<TRIPOS>BOND
     1     1     2 1   
     2     1    38 1   
     3     1    39 1   
     4     2     3 ar  
     5     2     6 ar  
     6     3     4 ar  
     7     4     5 1   
     8     4    10 ar  
     9     5    40 1   
    10     5    41 1   
    11     6     7 ar  
    12     7     8 1   
    13     7    10 ar  
    14     8     9 1   
    15     8    42 1   
    16     8    43 1   
    17     9    44 1   
    18     9    45 1   
    19     9    46 1   
    20    10    11 1   
    21    11    12 ar  
    22    11    14 ar  
    23    12    13 ar  
    24    12    47 1   
    25    13    16 ar  
    26    13    48 1   
    27    14    15 ar  
    28    14    49 1   
    29    15    16 ar  
    30    15    50 1   
    31    16    17 1   
    32    17    18 1   
    33    18    19 1   
    34    18    51 1   
    35    18    52 1   
    36    19    20 1   
    37    19    53 1   
    38    19    54 1   
    39    20    21 1   
    40    20    55 1   
    41    20    56 1   
    42    21    22 1   
    43    22    23 ar  
    44    22    25 ar  
    45    23    24 ar  
    46    23    57 1   
    47    24    27 ar  
    48    24    58 1   
    49    25    26 ar  
    50    25    59 1   
    51    26    27 ar  
    52    26    60 1   
    53    27    28 1   
    54    28    29 ar  
    55    28    33 ar  
    56    29    30 1   
    57    29    32 ar  
    58    30    31 1   
    59    30    61 1   
    60    30    62 1   
    61    31    63 1   
    62    31    64 1   
    63    31    65 1   
    64    32    36 ar  
    65    33    34 1   
    66    33    35 ar  
    67    34    66 1   
    68    34    67 1   
    69    35    36 ar  
    70    36    37 1   
    71    37    68 1   
    72    37    69 1   
@<TRIPOS>SUBSTRUCTURE
     1 9RR         1 TEMP              0 ****  ****    0 ROOT
