@<TRIPOS>MOLECULE
9RS
   55    59     1     0     0
SMALL
No Charge or Current Charge


@<TRIPOS>ATOM
      1 N3          -1.2840    -0.1270     1.1880 na         1 9RS       0.212000
      2 C5          -4.6780     0.5370     0.2200 cc         1 9RS       0.037700
      3 C6          -2.7550     1.2030     1.8410 cc         1 9RS       0.318300
      4 C8          -5.7630     1.2960     0.6400 cd         1 9RS      -0.208200
      5 C10         -6.8780     1.0880    -0.2550 ca         1 9RS      -0.157800
      6 C20          1.8200    -1.6330    -0.2140 ca         1 9RS      -0.115300
      7 C21          2.6740    -1.5540    -1.4710 c3         1 9RS       0.160300
      8 C22         -8.1880     1.5920    -0.2880 ca         1 9RS       0.389900
      9 C24         -3.4320     2.3120     2.5940 c3         1 9RS      -0.127400
     10 C26         -8.5980     0.3450    -2.2200 ca         1 9RS       0.343900
     11 C28          2.1900    -2.4870     0.8430 ca         1 9RS      -0.086000
     12 C1          -3.3500     0.4400     0.7880 cc         1 9RS      -0.250800
     13 C2          -2.3850    -0.4390     0.3840 cd         1 9RS       0.101100
     14 N4          -1.5030     0.8710     2.1130 nd         1 9RS      -0.514800
     15 N7          -5.1150    -0.1210    -0.9480 na         1 9RS      -0.235700
     16 C9          -0.1370    -0.9150     1.0690 ca         1 9RS       0.014800
     17 C11          4.9970    -0.7770    -0.9130 c          1 9RS       0.664100
     18 C12         -6.4340     0.2160    -1.2020 ca         1 9RS      -0.022200
     19 N13          5.7610     0.3780    -0.8580 ns         1 9RS      -0.163000
     20 N14          3.7140    -0.5330    -1.3420 ns         1 9RS      -0.522900
     21 O15         -2.4600    -1.4940    -0.4640 oh         1 9RS      -0.519100
     22 C16          0.6570    -0.8460    -0.0940 ca         1 9RS      -0.086000
     23 O17          5.3870    -1.8990    -0.6230 o          1 9RS      -0.626100
     24 N18         -9.0490     1.2180    -1.2730 nb         1 9RS      -0.690000
     25 C19         -7.2890    -0.1880    -2.2300 ca         1 9RS      -0.180000
     26 C23          7.1100     0.6170    -0.4780 ca         1 9RS      -0.002000
     27 C25          0.2450    -1.7710     2.1200 ca         1 9RS      -0.096000
     28 C27          1.4050    -2.5550     2.0060 ca         1 9RS      -0.105000
     29 C29          7.5850     1.9400    -0.5620 ca         1 9RS      -0.155500
     30 C30          7.9860    -0.3940    -0.0230 ca         1 9RS      -0.155500
     31 C31          8.9070     2.2540    -0.2030 ca         1 9RS      -0.081500
     32 C32          9.3090    -0.0810     0.3370 ca         1 9RS      -0.081500
     33 C33          9.7700     1.2420     0.2470 ca         1 9RS      -0.140000
     34 H1          -5.8000     1.9340     1.5150 ha         1 9RS       0.210000
     35 H2           3.1320    -2.5320    -1.6750 h1         1 9RS       0.070200
     36 H3           2.0410    -1.3050    -2.3330 h1         1 9RS       0.070200
     37 H4          -8.5540     2.2900     0.4640 h4         1 9RS       0.020100
     38 H5          -4.2530     1.9230     3.2060 hc         1 9RS       0.054367
     39 H6          -2.7310     2.8150     3.2700 hc         1 9RS       0.054367
     40 H7          -3.8220     3.0710     1.9070 hc         1 9RS       0.054367
     41 H8          -9.3110     0.0660    -2.9960 h4         1 9RS       0.016100
     42 H9           3.0890    -3.0960     0.7640 ha         1 9RS       0.135000
     43 H11         -4.5280    -0.6570    -1.5750 hn         1 9RS       0.349000
     44 H12          5.2670     1.2140    -1.1400 hn         1 9RS       0.144000
     45 H13          3.4740     0.4260    -1.5570 hn         1 9RS       0.310500
     46 H14          0.3670    -0.1790    -0.9040 ha         1 9RS       0.134000
     47 H15         -6.9720    -0.8800    -3.0050 ha         1 9RS       0.122000
     48 H16         -0.3580    -1.8250     3.0240 ha         1 9RS       0.128000
     49 H17          1.6970    -3.2150     2.8200 ha         1 9RS       0.122000
     50 H18          6.9260     2.7330    -0.9100 ha         1 9RS       0.127000
     51 H19          7.6630    -1.4270     0.0610 ha         1 9RS       0.127000
     52 H20          9.2620     3.2800    -0.2740 ha         1 9RS       0.112500
     53 H21          9.9770    -0.8660     0.6860 ha         1 9RS       0.112500
     54 H22         10.7930     1.4830     0.5250 ha         1 9RS       0.115000
     55 H10         -3.3470    -1.8950    -0.3400 ho         1 9RS       0.495000
@<TRIPOS>BOND
     1     1    13 1   
     2     1    14 1   
     3     1    16 1   
     4     2     4 2   
     5     2    12 1   
     6     2    15 1   
     7     3     9 1   
     8     3    12 1   
     9     3    14 2   
    10     4     5 1   
    11     4    34 1   
    12     5     8 ar  
    13     5    18 ar  
    14     6     7 1   
    15     6    11 ar  
    16     6    22 ar  
    17     7    20 1   
    18     7    35 1   
    19     7    36 1   
    20     8    24 ar  
    21     8    37 1   
    22     9    38 1   
    23     9    39 1   
    24     9    40 1   
    25    10    24 ar  
    26    10    25 ar  
    27    10    41 1   
    28    11    28 ar  
    29    11    42 1   
    30    12    13 2   
    31    13    21 1   
    32    15    18 1   
    33    15    43 1   
    34    16    22 ar  
    35    16    27 ar  
    36    17    19 1   
    37    17    20 1   
    38    17    23 2   
    39    18    25 ar  
    40    19    26 1   
    41    19    44 1   
    42    20    45 1   
    43    21    55 1   
    44    22    46 1   
    45    25    47 1   
    46    26    29 ar  
    47    26    30 ar  
    48    27    28 ar  
    49    27    48 1   
    50    28    49 1   
    51    29    31 ar  
    52    29    50 1   
    53    30    32 ar  
    54    30    51 1   
    55    31    33 ar  
    56    31    52 1   
    57    32    33 ar  
    58    32    53 1   
    59    33    54 1   
@<TRIPOS>SUBSTRUCTURE
     1 9RS         1 TEMP              0 ****  ****    0 ROOT
