@<TRIPOS>MOLECULE
9RS
   55    59     1     0     0
SMALL
bcc


@<TRIPOS>ATOM
      1 N3          -1.4930     0.2140     0.2150 na         1 9RS       0.161300
      2 C5          -5.0990     0.3640     0.2280 cc         1 9RS       0.037700
      3 C6          -2.9370     1.7740     0.2820 cc         1 9RS       0.383600
      4 C8          -6.0870     1.0340     0.8980 cd         1 9RS      -0.158200
      5 C10         -7.3250     0.4310     0.5240 ca         1 9RS      -0.223100
      6 C20          2.0280    -0.2840    -0.7700 ca         1 9RS      -0.115300
      7 C21          3.0490     0.3640    -1.6740 c3         1 9RS       0.160300
      8 C22         -8.6670     0.6360     0.8470 ca         1 9RS       0.455200
      9 C24         -3.4870     3.1540     0.3440 c3         1 9RS      -0.127400
     10 C26         -9.3210    -1.0750    -0.5320 ca         1 9RS       0.409200
     11 C28          2.3550    -1.4080    -0.0120 ca         1 9RS      -0.104000
     12 C1          -3.6660     0.5570     0.2440 cc         1 9RS      -0.316100
     13 C2          -2.6840    -0.4150     0.1970 cd         1 9RS       0.151800
     14 N4          -1.6430     1.5560     0.2510 nd         1 9RS      -0.514800
     15 N7          -5.6740    -0.6350    -0.5350 na         1 9RS      -0.185400
     16 C9          -0.2020    -0.3530     0.1470 ca         1 9RS       0.014800
     17 C11          5.3720     0.1200    -0.8990 c          1 9RS       0.798100
     18 C12         -7.0230    -0.6080    -0.3800 ca         1 9RS      -0.022200
     19 N13          6.3190     0.7050    -0.0980 ns         1 9RS      -0.489100
     20 N14          4.2180     0.8320    -0.9710 ns         1 9RS      -0.589900
     21 O15         -2.7360    -1.7390     0.1090 oh         1 9RS      -0.480100
     22 C16          0.7440     0.2340    -0.6890 ca         1 9RS      -0.104000
     23 O17          5.5460    -0.9290    -1.5020 o          1 9RS      -0.626100
     24 N18         -9.6370    -0.0990     0.3330 nb         1 9RS      -0.690000
     25 C19         -8.0370    -1.3840    -0.9320 ca         1 9RS      -0.263300
     26 C23          7.6030     0.2560     0.2060 ca         1 9RS       0.090600
     27 C25          0.1310    -1.4570     0.9180 ca         1 9RS      -0.114000
     28 C27          1.4120    -1.9850     0.8220 ca         1 9RS      -0.123000
     29 C29          8.3060     0.9830     1.1730 ca         1 9RS      -0.173500
     30 C30          8.2270    -0.8440    -0.3900 ca         1 9RS      -0.173500
     31 C31          9.5920     0.6240     1.5370 ca         1 9RS      -0.099500
     32 C32          9.5170    -1.1930    -0.0110 ca         1 9RS      -0.099500
     33 C33         10.2110    -0.4710     0.9490 ca         1 9RS      -0.158000
     34 H1          -5.9450     1.8380     1.6030 ha         1 9RS       0.160000
     35 H2           3.3660    -0.3370    -2.4460 h1         1 9RS       0.070200
     36 H3           2.5940     1.2110    -2.1890 h1         1 9RS       0.070200
     37 H4          -8.9560     1.4190     1.5410 h4         1 9RS       0.020100
     38 H5          -3.8750     3.3830     1.3380 hc         1 9RS       0.054367
     39 H6          -2.7140     3.8840     0.1110 hc         1 9RS       0.054367
     40 H7          -4.3090     3.2810    -0.3600 hc         1 9RS       0.054367
     41 H8         -10.1530    -1.6490    -0.9250 h4         1 9RS       0.016100
     42 H9           3.3470    -1.8350    -0.0740 ha         1 9RS       0.153000
     43 H11         -5.1910    -1.1710    -1.2390 hn         1 9RS       0.298700
     44 H12          6.0530     1.5550     0.3750 hn         1 9RS       0.310500
     45 H13          4.0950     1.6420    -0.3850 hn         1 9RS       0.310500
     46 H14          0.4730     1.1060    -1.2730 ha         1 9RS       0.152000
     47 H15         -7.8460    -2.1870    -1.6310 ha         1 9RS       0.140000
     48 H16         -0.5840    -1.9000     1.5970 ha         1 9RS       0.146000
     49 H17          1.6740    -2.8510     1.4150 ha         1 9RS       0.140000
     50 H18          7.8380     1.8390     1.6450 ha         1 9RS       0.145000
     51 H19          7.7200    -1.4260    -1.1410 ha         1 9RS       0.145000
     52 H20         10.1110     1.2060     2.2880 ha         1 9RS       0.130500
     53 H21          9.9830    -2.0480    -0.4840 ha         1 9RS       0.130500
     54 H22         11.2160    -0.7540     1.2320 ha         1 9RS       0.133000
     55 H10         -3.5780    -2.0750     0.4390 ho         1 9RS       0.456000
@<TRIPOS>BOND
     1     1    13 1   
     2     1    14 1   
     3     1    16 1   
     4     2     4 2   
     5     2    12 1   
     6     2    15 1   
     7     3     9 1   
     8     3    12 1   
     9     3    14 2   
    10     4     5 1   
    11     4    34 1   
    12     5     8 ar  
    13     5    18 ar  
    14     6     7 1   
    15     6    11 ar  
    16     6    22 ar  
    17     7    20 1   
    18     7    35 1   
    19     7    36 1   
    20     8    24 ar  
    21     8    37 1   
    22     9    38 1   
    23     9    39 1   
    24     9    40 1   
    25    10    24 ar  
    26    10    25 ar  
    27    10    41 1   
    28    11    28 ar  
    29    11    42 1   
    30    12    13 2   
    31    13    21 1   
    32    15    18 1   
    33    15    43 1   
    34    16    22 ar  
    35    16    27 ar  
    36    17    19 1   
    37    17    20 1   
    38    17    23 2   
    39    18    25 ar  
    40    19    26 1   
    41    19    44 1   
    42    20    45 1   
    43    21    55 1   
    44    22    46 1   
    45    25    47 1   
    46    26    29 ar  
    47    26    30 ar  
    48    27    28 ar  
    49    27    48 1   
    50    28    49 1   
    51    29    31 ar  
    52    29    50 1   
    53    30    32 ar  
    54    30    51 1   
    55    31    33 ar  
    56    31    52 1   
    57    32    33 ar  
    58    32    53 1   
    59    33    54 1   
@<TRIPOS>SUBSTRUCTURE
     1 9RS         1 TEMP              0 ****  ****    0 ROOT
