@<TRIPOS>MOLECULE
9RT
   34    35     1     0     0
SMALL
No Charge or Current Charge


@<TRIPOS>ATOM
      1 N1           6.2740     1.4530     0.3560 n8         1 9RT      -1.001200
      2 C1           4.9670     2.0850     0.6320 c3         1 9RT       0.189100
      3 C2           3.8030     1.1460     0.3290 ca         1 9RT      -0.031300
      4 C3           3.2200     0.3790     1.3570 ca         1 9RT      -0.122500
      5 C4           2.1430    -0.4810     1.0820 ca         1 9RT      -0.019000
      6 C5           1.6380    -0.5830    -0.2310 ca         1 9RT      -0.318500
      7 S1           0.2560    -1.6800    -0.5780 sy         1 9RT       1.144600
      8 O1           0.1310    -1.8700    -2.0250 o          1 9RT      -0.529000
      9 O2           0.2580    -2.7890     0.3800 o          1 9RT      -0.529000
     10 N2          -0.9950    -0.6770    -0.1180 n7         1 9RT      -0.843300
     11 C6          -2.3270    -0.8860    -0.7460 c3         1 9RT       0.149500
     12 C7          -3.3960     0.1010    -0.2520 ca         1 9RT       0.333300
     13 C8          -3.4230     1.4250    -0.7370 ca         1 9RT      -0.158000
     14 C9          -4.4090     2.3110    -0.2710 ca         1 9RT      -0.073000
     15 C10         -5.3350     1.8320     0.6690 ca         1 9RT      -0.158000
     16 C11         -5.2440     0.4990     1.1030 ca         1 9RT       0.339900
     17 N3          -4.2960    -0.3570     0.6550 nb         1 9RT      -0.637000
     18 C12          2.2180     0.1840    -1.2630 ca         1 9RT      -0.019000
     19 C13          3.2950     1.0430    -0.9800 ca         1 9RT      -0.122500
     20 H1           7.0220     2.0880     0.6600 hn         1 9RT       0.402500
     21 H2           6.3820     0.6390     0.9730 hn         1 9RT       0.402500
     22 H4           4.9340     2.3860     1.6880 h1         1 9RT       0.040200
     23 H5           4.8760     2.9940     0.0190 h1         1 9RT       0.040200
     24 H6           3.6010     0.4500     2.3730 ha         1 9RT       0.127500
     25 H7           1.7040    -1.0630     1.8910 ha         1 9RT       0.134500
     26 H8          -0.6230     0.2430    -0.3510 hn         1 9RT       0.476000
     27 H9          -2.2610    -0.7860    -1.8390 h1         1 9RT       0.064700
     28 H10         -2.6800    -1.9070    -0.5460 h1         1 9RT       0.064700
     29 H11         -2.6880     1.7570    -1.4660 ha         1 9RT       0.120000
     30 H12         -4.4530     3.3380    -0.6280 ha         1 9RT       0.120000
     31 H13         -6.1160     2.4790     1.0590 ha         1 9RT       0.126000
     32 H14         -5.9510     0.1030     1.8310 h4         1 9RT       0.024100
     33 H15          1.8430     0.1210    -2.2840 ha         1 9RT       0.134500
     34 H16          3.7380     1.6290    -1.7810 ha         1 9RT       0.127500
@<TRIPOS>BOND
     1     1     2 1   
     2     1    20 1   
     3     1    21 1   
     4     2     3 1   
     5     2    22 1   
     6     2    23 1   
     7     3     4 ar  
     8     3    19 ar  
     9     4     5 ar  
    10     4    24 1   
    11     5     6 ar  
    12     5    25 1   
    13     6     7 1   
    14     6    18 ar  
    15     7     8 2   
    16     7     9 2   
    17     7    10 1   
    18    10    11 1   
    19    10    26 1   
    20    11    12 1   
    21    11    27 1   
    22    11    28 1   
    23    12    13 ar  
    24    12    17 ar  
    25    13    14 ar  
    26    13    29 1   
    27    14    15 ar  
    28    14    30 1   
    29    15    16 ar  
    30    15    31 1   
    31    16    17 ar  
    32    16    32 1   
    33    18    19 ar  
    34    18    33 1   
    35    19    34 1   
@<TRIPOS>SUBSTRUCTURE
     1 9RT         1 TEMP              0 ****  ****    0 ROOT
