@<TRIPOS>MOLECULE
9RT
   34    35     1     0     0
SMALL
bcc


@<TRIPOS>ATOM
      1 N1           5.6270     1.8510    -0.8940 n8         1 9RT      -0.890800
      2 C1           4.7930     1.8670     0.2920 c3         1 9RT       0.189100
      3 C2           3.6540     0.8840     0.2090 ca         1 9RT      -0.031300
      4 C3           3.1160     0.3440     1.3770 ca         1 9RT      -0.140500
      5 C4           2.0380    -0.5230     1.3340 ca         1 9RT      -0.037000
      6 C5           1.4920    -0.8620     0.1020 ca         1 9RT      -0.318500
      7 S1           0.0830    -1.9290     0.0460 sy         1 9RT       1.286200
      8 O1          -0.0470    -2.4290    -1.3130 o          1 9RT      -0.599800
      9 O2           0.1620    -2.8600     1.1600 o          1 9RT      -0.599800
     10 N2          -1.2400    -0.9880     0.3420 n7         1 9RT      -0.788100
     11 C6          -1.5330     0.1120    -0.5740 c3         1 9RT       0.149500
     12 C7          -2.9080     0.6440    -0.2780 ca         1 9RT       0.398600
     13 C8          -3.0750     1.9060     0.2770 ca         1 9RT      -0.241300
     14 C9          -4.3610     2.3550     0.5430 ca         1 9RT      -0.091000
     15 C10         -5.4290     1.5260     0.2450 ca         1 9RT      -0.241300
     16 C11         -5.1590     0.2810    -0.3080 ca         1 9RT       0.405200
     17 N3          -3.9340    -0.1540    -0.5650 nb         1 9RT      -0.637000
     18 C12          2.0170    -0.3450    -1.0750 ca         1 9RT      -0.037000
     19 C13          3.0960     0.5230    -1.0140 ca         1 9RT      -0.140500
     20 H1           6.2630     2.6370    -0.8650 hn         1 9RT       0.347300
     21 H2           6.2030     1.0190    -0.8950 hn         1 9RT       0.347300
     22 H4           5.3390     1.6910     1.2280 h1         1 9RT       0.040200
     23 H5           4.3620     2.8680     0.3880 h1         1 9RT       0.040200
     24 H6           3.5500     0.5980     2.3360 ha         1 9RT       0.145500
     25 H7           1.6430    -0.9340     2.2540 ha         1 9RT       0.152500
     26 H8          -1.2940    -0.7230     1.3210 hn         1 9RT       0.420800
     27 H9          -0.7950     0.9160    -0.5000 h1         1 9RT       0.064700
     28 H10         -1.5100    -0.2710    -1.5940 h1         1 9RT       0.064700
     29 H11         -2.2150     2.5240     0.4960 ha         1 9RT       0.138000
     30 H12         -4.5230     3.3330     0.9760 ha         1 9RT       0.138000
     31 H13         -6.4500     1.8300     0.4320 ha         1 9RT       0.144000
     32 H14         -5.9720    -0.3920    -0.5570 h4         1 9RT       0.024100
     33 H15          1.5990    -0.6150    -2.0360 ha         1 9RT       0.152500
     34 H16          3.5150     0.9190    -1.9280 ha         1 9RT       0.145500
@<TRIPOS>BOND
     1     1     2 1   
     2     1    20 1   
     3     1    21 1   
     4     2     3 1   
     5     2    22 1   
     6     2    23 1   
     7     3     4 ar  
     8     3    19 ar  
     9     4     5 ar  
    10     4    24 1   
    11     5     6 ar  
    12     5    25 1   
    13     6     7 1   
    14     6    18 ar  
    15     7     8 2   
    16     7     9 2   
    17     7    10 1   
    18    10    11 1   
    19    10    26 1   
    20    11    12 1   
    21    11    27 1   
    22    11    28 1   
    23    12    13 ar  
    24    12    17 ar  
    25    13    14 ar  
    26    13    29 1   
    27    14    15 ar  
    28    14    30 1   
    29    15    16 ar  
    30    15    31 1   
    31    16    17 ar  
    32    16    32 1   
    33    18    19 ar  
    34    18    33 1   
    35    19    34 1   
@<TRIPOS>SUBSTRUCTURE
     1 9RT         1 TEMP              0 ****  ****    0 ROOT
