@<TRIPOS>MOLECULE
9RW
   20    20     1     0     0
SMALL
No Charge or Current Charge


@<TRIPOS>ATOM
      1 OE1          2.4660    -0.2080     1.6650 o          1 9RW      -0.725500
      2 CD           1.9190    -0.3230     0.5770 c          1 9RW       0.724000
      3 OE2          2.0410    -1.3120    -0.1320 o          1 9RW      -0.725500
      4 CG           1.0070     0.8300     0.0990 c3         1 9RW      -0.173400
      5 C3           1.5350     1.4780    -1.2050 c3         1 9RW      -0.051100
      6 CB          -0.4520     0.3690     0.0050 ca         1 9RW       0.016700
      7 CA          -1.3420     0.6550     1.0610 ca         1 9RW      -0.109500
      8 C           -2.6850     0.2450     0.9980 ca         1 9RW      -0.122500
      9 C7          -3.1530    -0.4590    -0.1230 ca         1 9RW      -0.150000
     10 C8          -2.2760    -0.7550    -1.1780 ca         1 9RW      -0.122500
     11 C9          -0.9320    -0.3450    -1.1150 ca         1 9RW      -0.109500
     12 H2           1.0580     1.6150     0.8640 hc         1 9RW       0.032700
     13 H3           0.8750     2.2950    -1.5220 hc         1 9RW       0.014700
     14 H4           2.5370     1.8940    -1.0430 hc         1 9RW       0.014700
     15 H5           1.6020     0.7510    -2.0220 hc         1 9RW       0.014700
     16 H6          -0.9930     1.1990     1.9360 ha         1 9RW       0.106000
     17 H7          -3.3620     0.4730     1.8180 ha         1 9RW       0.086500
     18 H8          -4.1910    -0.7770    -0.1720 ha         1 9RW       0.085000
     19 H9          -2.6350    -1.3050    -2.0450 ha         1 9RW       0.086500
     20 H10         -0.2660    -0.5920    -1.9360 ha         1 9RW       0.106000
@<TRIPOS>BOND
     1     1     2 1   
     2     2     3 1   
     3     2     4 1   
     4     4     5 1   
     5     4     6 1   
     6     4    12 1   
     7     5    13 1   
     8     5    14 1   
     9     5    15 1   
    10     6     7 ar  
    11     6    11 ar  
    12     7     8 ar  
    13     7    16 1   
    14     8     9 ar  
    15     8    17 1   
    16     9    10 ar  
    17     9    18 1   
    18    10    11 ar  
    19    10    19 1   
    20    11    20 1   
@<TRIPOS>SUBSTRUCTURE
     1 9RW         1 TEMP              0 ****  ****    0 ROOT
