@<TRIPOS>MOLECULE
9RW
   20    20     1     0     0
SMALL
bcc


@<TRIPOS>ATOM
      1 OE1          1.4870    -1.2660     1.1730 o          1 9RW      -0.830800
      2 CD           1.9610    -0.3950     0.4190 c          1 9RW       0.934600
      3 OE2          3.1230    -0.3550    -0.0300 o          1 9RW      -0.830800
      4 CG           1.0220     0.7830     0.0450 c3         1 9RW      -0.173400
      5 C3           1.4190     1.4780    -1.2550 c3         1 9RW      -0.051100
      6 CB          -0.4220     0.3570     0.0350 ca         1 9RW       0.016700
      7 CA          -1.3160     0.8140     1.0000 ca         1 9RW      -0.127500
      8 C           -2.6530     0.4340     0.9850 ca         1 9RW      -0.140500
      9 C7          -3.1250    -0.4140    -0.0070 ca         1 9RW      -0.168000
     10 C8          -2.2450    -0.8760    -0.9810 ca         1 9RW      -0.140500
     11 C9          -0.9120    -0.4940    -0.9560 ca         1 9RW      -0.127500
     12 H2           1.1370     1.5170     0.8540 hc         1 9RW       0.032700
     13 H3           0.7490     2.3100    -1.4770 hc         1 9RW       0.014700
     14 H4           2.4310     1.8750    -1.1880 hc         1 9RW       0.014700
     15 H5           1.3930     0.7960    -2.1070 hc         1 9RW       0.014700
     16 H6          -0.9610     1.4790     1.7800 ha         1 9RW       0.124000
     17 H7          -3.3260     0.8040     1.7480 ha         1 9RW       0.104500
     18 H8          -4.1650    -0.7120    -0.0250 ha         1 9RW       0.103000
     19 H9          -2.6010    -1.5370    -1.7610 ha         1 9RW       0.104500
     20 H10         -0.2430    -0.8710    -1.7220 ha         1 9RW       0.124000
@<TRIPOS>BOND
     1     1     2 1   
     2     2     3 1   
     3     2     4 1   
     4     4     5 1   
     5     4     6 1   
     6     4    12 1   
     7     5    13 1   
     8     5    14 1   
     9     5    15 1   
    10     6     7 ar  
    11     6    11 ar  
    12     7     8 ar  
    13     7    16 1   
    14     8     9 ar  
    15     8    17 1   
    16     9    10 ar  
    17     9    18 1   
    18    10    11 ar  
    19    10    19 1   
    20    11    20 1   
@<TRIPOS>SUBSTRUCTURE
     1 9RW         1 TEMP              0 ****  ****    0 ROOT
