@<TRIPOS>MOLECULE
9RX
   41    44     1     0     0
SMALL
abcg2


@<TRIPOS>ATOM
      1 C10        -35.8790     9.7180     5.7770 cc         1 9RX       0.589300
      2 C15        -36.4830    11.8980     7.2440 c3         1 9RX      -0.050400
      3 C17        -38.5220     9.1040    12.0080 ca         1 9RX      -0.078200
      4 C20        -38.0950    10.2890    10.2110 cc         1 9RX       0.512400
      5 C22        -40.9340     9.0720    11.8300 ca         1 9RX      -0.057000
      6 C24        -39.7720     7.9620    13.6520 ca         1 9RX      -0.109000
      7 C01        -35.2510     4.9610     9.7800 ca         1 9RX      -0.122000
      8 C02        -35.2030     4.5350     8.4640 ca         1 9RX      -0.090000
      9 C03        -35.2640     5.4210     7.3860 ca         1 9RX      -0.118600
     10 C04        -35.4030     6.7940     7.6730 ca         1 9RX      -0.107500
     11 C05        -35.4820     7.2090     9.0080 ca         1 9RX      -0.097000
     12 C06        -35.4000     6.3130    10.0560 ca         1 9RX      -0.141000
     13 C07        -35.5270     7.8740     6.6870 cd         1 9RX       0.473000
     14 C14        -37.6140    11.2100     7.9920 c          1 9RX       0.642100
     15 C18        -39.6970     9.4700    11.3300 ca         1 9RX       0.093400
     16 C23        -40.9550     8.3190    12.9930 ca         1 9RX      -0.138000
     17 C25        -38.5300     8.3500    13.1720 ca         1 9RX      -0.112000
     18 N08        -35.2210     7.8010     5.3970 na         1 9RX      -0.161700
     19 N09        -35.4350     8.9700     4.7890 nd         1 9RX      -0.519800
     20 N11        -35.9550     9.1020     6.9640 nc         1 9RX      -0.772000
     21 N13        -37.2970    10.9390     9.2960 ns         1 9RX      -0.415400
     22 N19        -37.5090     9.6480    11.2590 na         1 9RX      -0.350600
     23 N21        -39.3930    10.2180    10.2150 nd         1 9RX      -0.579100
     24 O16        -38.6860    10.9790     7.4900 o          1 9RX      -0.504100
     25 O27        -35.6630     3.6290     5.9140 o          1 9RX      -0.686500
     26 O28        -34.6040     5.3850     5.0710 o          1 9RX      -0.686500
     27 S12        -36.3650    11.3820     5.5240 ss         1 9RX      -0.288300
     28 H151       -35.5180    11.7810     7.7360 h1         1 9RX       0.078700
     29 H152       -36.7010    12.9690     7.2090 h1         1 9RX       0.078700
     30 H221       -41.8510     9.3460    11.3230 ha         1 9RX       0.126000
     31 H241       -39.8270     7.3700    14.5570 ha         1 9RX       0.103000
     32 H011       -35.1840     4.2400    10.5840 ha         1 9RX       0.094000
     33 H021       -35.1130     3.4780     8.2590 ha         1 9RX       0.130000
     34 H051       -35.6090     8.2620     9.2190 ha         1 9RX       0.104000
     35 H061       -35.4540     6.6680    11.0760 ha         1 9RX       0.087000
     36 H231       -41.9040     7.9990    13.4030 ha         1 9RX       0.105000
     37 H251       -37.6160     8.0740    13.6800 ha         1 9RX       0.111000
     38 H1         -34.8680     6.9060     4.9730 hn         1 9RX       0.458000
     39 H131       -36.3370    11.0850     9.5740 hn         1 9RX       0.318500
     40 H2         -36.5180     9.5580    11.4310 hn         1 9RX       0.354000
     41 C26        -35.1840     4.7630     6.0020 c          1 9RX       0.726600
@<TRIPOS>BOND
     1     1    19 2   
     2     1    20 1   
     3     1    27 1   
     4     2    14 1   
     5     2    27 1   
     6     2    28 1   
     7     2    29 1   
     8     3    15 ar  
     9     3    17 ar  
    10     3    22 1   
    11     4    21 1   
    12     4    22 1   
    13     4    23 2   
    14     5    15 ar  
    15     5    16 ar  
    16     5    30 1   
    17     6    16 ar  
    18     6    17 ar  
    19     6    31 1   
    20     7     8 ar  
    21     7    12 ar  
    22     7    32 1   
    23     8     9 ar  
    24     8    33 1   
    25     9    10 ar  
    26     9    41 1   
    27    10    11 ar  
    28    10    13 1   
    29    11    12 ar  
    30    11    34 1   
    31    12    35 1   
    32    13    18 1   
    33    13    20 2   
    34    14    21 1   
    35    14    24 2   
    36    15    23 1   
    37    16    36 1   
    38    17    37 1   
    39    18    19 1   
    40    18    38 1   
    41    21    39 1   
    42    22    40 1   
    43    25    41 1   
    44    26    41 1   
@<TRIPOS>SUBSTRUCTURE
     1 9RX         1 TEMP              0 ****  ****    0 ROOT
