@<TRIPOS>MOLECULE
9RX
   41    44     1     0     0
SMALL
No Charge or Current Charge


@<TRIPOS>ATOM
      1 C10        -35.9980     9.6880     5.9390 cc         1 9RX       0.589300
      2 C15        -36.4280    12.1880     7.2400 c3         1 9RX      -0.050400
      3 C17        -38.8830     8.4520    11.1830 ca         1 9RX      -0.078200
      4 C20        -38.1990    10.0050     9.7710 cc         1 9RX       0.512400
      5 C22        -40.8920     9.4920    11.9960 ca         1 9RX      -0.057000
      6 C24        -40.1980     7.2830    12.8160 ca         1 9RX      -0.109000
      7 C01        -34.4420     5.3820    10.3070 ca         1 9RX      -0.122000
      8 C02        -34.9440     4.8100     9.1300 ca         1 9RX      -0.090000
      9 C03        -35.2470     5.6060     8.0020 ca         1 9RX      -0.118600
     10 C04        -35.0340     7.0210     8.0630 ca         1 9RX      -0.107500
     11 C05        -34.5410     7.5730     9.2720 ca         1 9RX      -0.097000
     12 C06        -34.2420     6.7640    10.3770 ca         1 9RX      -0.141000
     13 C07        -35.4000     7.9590     6.9650 cd         1 9RX       0.473000
     14 C14        -37.5850    11.8090     8.1840 c          1 9RX       0.642100
     15 C18        -39.7530     9.5040    11.1770 ca         1 9RX       0.093400
     16 C23        -41.1110     8.3660    12.8220 ca         1 9RX      -0.138000
     17 C25        -39.0590     7.3180    11.9840 ca         1 9RX      -0.112000
     18 N08        -35.6390     7.6840     5.6330 na         1 9RX      -0.161700
     19 N09        -36.0400     8.8180     4.9560 nd         1 9RX      -0.519800
     20 N11        -35.6110     9.2470     7.1590 nc         1 9RX      -0.772000
     21 N13        -37.4040    10.6210     8.8460 ns         1 9RX      -0.415400
     22 N19        -37.8970     8.7580    10.3000 na         1 9RX      -0.350600
     23 N21        -39.3370    10.4960    10.2920 nd         1 9RX      -0.579100
     24 O16        -38.5640    12.5290     8.3220 o          1 9RX      -0.504100
     25 O27        -36.8200     4.2150     6.9510 o          1 9RX      -0.686500
     26 O28        -35.2400     5.0150     5.7230 o          1 9RX      -0.686500
     27 S12        -36.4920    11.3350     5.5810 ss         1 9RX      -0.288300
     28 H151       -35.4750    11.9630     7.7350 h1         1 9RX       0.078700
     29 H152       -36.4790    13.2710     7.0790 h1         1 9RX       0.078700
     30 H221       -41.5860    10.3290    11.9930 ha         1 9RX       0.126000
     31 H241       -40.3760     6.4200    13.4550 ha         1 9RX       0.103000
     32 H011       -34.2140     4.7520    11.1640 ha         1 9RX       0.094000
     33 H021       -35.1050     3.7350     9.0900 ha         1 9RX       0.130000
     34 H051       -34.3770     8.6450     9.3600 ha         1 9RX       0.104000
     35 H061       -33.8570     7.2120    11.2910 ha         1 9RX       0.087000
     36 H231       -41.9870     8.3320    13.4660 ha         1 9RX       0.105000
     37 H251       -38.3480     6.4950    11.9660 ha         1 9RX       0.111000
     38 H1         -35.5350     6.7590     5.2060 hn         1 9RX       0.458000
     39 H131       -36.5750    10.1170     8.5540 hn         1 9RX       0.318500
     40 H2         -37.0940     8.1910    10.0620 hn         1 9RX       0.354000
     41 C26        -35.8170     4.8940     6.7950 c          1 9RX       0.726600
@<TRIPOS>BOND
     1     1    19 2   
     2     1    20 1   
     3     1    27 1   
     4     2    14 1   
     5     2    27 1   
     6     2    28 1   
     7     2    29 1   
     8     3    15 ar  
     9     3    17 ar  
    10     3    22 1   
    11     4    21 1   
    12     4    22 1   
    13     4    23 2   
    14     5    15 ar  
    15     5    16 ar  
    16     5    30 1   
    17     6    16 ar  
    18     6    17 ar  
    19     6    31 1   
    20     7     8 ar  
    21     7    12 ar  
    22     7    32 1   
    23     8     9 ar  
    24     8    33 1   
    25     9    10 ar  
    26     9    41 1   
    27    10    11 ar  
    28    10    13 1   
    29    11    12 ar  
    30    11    34 1   
    31    12    35 1   
    32    13    18 1   
    33    13    20 2   
    34    14    21 1   
    35    14    24 2   
    36    15    23 1   
    37    16    36 1   
    38    17    37 1   
    39    18    19 1   
    40    18    38 1   
    41    21    39 1   
    42    22    40 1   
    43    25    41 1   
    44    26    41 1   
@<TRIPOS>SUBSTRUCTURE
     1 9RX         1 TEMP              0 ****  ****    0 ROOT
