@<TRIPOS>MOLECULE
9RZ
   67    71     1     0     0
SMALL
No Charge or Current Charge


@<TRIPOS>ATOM
      1 C1           1.2560    -2.1140     0.4550 c          1 9RZ       0.636700
      2 C7          -0.5500    -3.8870     0.3670 ca         1 9RZ       0.213100
      3 C9          -2.8640    -3.2530     0.2720 ca         1 9RZ       0.001800
      4 C10         -2.5360    -1.9360     0.2960 ca         1 9RZ      -0.231900
      5 C11         -3.7970    -1.2040     0.2460 cc         1 9RZ       0.321900
      6 C14         -3.8830     0.3150     0.3300 c          1 9RZ       0.557800
      7 C16         -6.0630     0.5260    -0.9820 c6         1 9RZ       0.104000
      8 C19         -6.7580     2.8910     0.6690 c6         1 9RZ       0.148300
      9 C20         -7.6000     2.5120    -0.5630 c6         1 9RZ      -0.076400
     10 C21         -7.5240     0.9930    -0.8000 c6         1 9RZ      -0.098400
     11 C24          3.1070    -0.7160    -0.6010 ca         1 9RZ      -0.086000
     12 C27          5.4330    -0.6500     0.1660 ca         1 9RZ      -0.160500
     13 C32          7.2080     2.4590    -1.0640 c6         1 9RZ       0.162800
     14 C33          8.7480     2.6990    -1.0860 c6         1 9RZ       0.147100
     15 C35          9.0190     1.6930     1.0820 c6         1 9RZ       0.147100
     16 N2           1.7920    -1.3260    -0.6100 n          1 9RZ      -0.238400
     17 O3           1.9010    -2.3820     1.4640 o          1 9RZ      -0.568100
     18 C4          -0.1890    -2.5170     0.3770 ca         1 9RZ      -0.205600
     19 C5          -1.1950    -1.5200     0.3510 ca         1 9RZ       0.043000
     20 C6          -1.9040    -4.2680     0.3080 ca         1 9RZ      -0.254000
     21 N12         -4.8360    -2.0730     0.2070 nd         1 9RZ      -0.510100
     22 N13         -4.2330    -3.3340     0.2130 na         1 9RZ      -0.052400
     23 O15         -2.9110     1.0180     0.6000 o          1 9RZ      -0.603100
     24 N17         -5.1520     0.9430     0.1340 n          1 9RZ      -0.391800
     25 C18         -5.2930     2.3900     0.5080 c6         1 9RZ       0.057000
     26 O22         -6.8230     4.3210     0.8660 os         1 9RZ      -0.454000
     27 C23         -6.2270     4.8540     2.0650 c3         1 9RZ       0.144900
     28 C25          3.2360     0.6360    -0.9870 ca         1 9RZ      -0.068500
     29 C26          5.5770     0.6740    -0.2820 ca         1 9RZ       0.302000
     30 C28          4.4600     1.3130    -0.8520 ca         1 9RZ      -0.160500
     31 C29          4.2090    -1.3280     0.0350 ca         1 9RZ      -0.068500
     32 N31          6.8180     1.3430    -0.1400 nh         1 9RZ      -0.792400
     33 O34          9.2640     2.8560     0.2570 os         1 9RZ      -0.445000
     34 C36          7.4910     1.4070     1.2000 c6         1 9RZ       0.162800
     35 H1          -6.0720    -0.5560    -1.1390 h1         1 9RZ       0.058700
     36 H2          -5.6740     0.9620    -1.9130 h1         1 9RZ       0.058700
     37 H3          -7.1990     2.4010     1.5500 h1         1 9RZ       0.043700
     38 H4          -8.6450     2.8160    -0.4110 hc         1 9RZ       0.053700
     39 H5          -7.2350     3.0500    -1.4490 hc         1 9RZ       0.053700
     40 H7          -8.1120     0.7220    -1.6870 hc         1 9RZ       0.054700
     41 H6          -7.9760     0.4600     0.0490 hc         1 9RZ       0.054700
     42 H8           6.2780    -1.1650     0.6140 ha         1 9RZ       0.114500
     43 H10          0.2670    -0.2940    -1.6720 h1         1 9RZ       0.040367
     44 H11          1.6220    -0.8710    -2.6770 h1         1 9RZ       0.040367
     45 H9           0.4220    -2.0330    -2.0830 h1         1 9RZ       0.040367
     46 H13          6.7110     3.3910    -0.7560 h1         1 9RZ       0.048450
     47 H12          6.8800     2.2360    -2.0900 h1         1 9RZ       0.048450
     48 H14          9.2510     1.8480    -1.5690 h1         1 9RZ       0.052450
     49 H15          8.9760     3.6030    -1.6680 h1         1 9RZ       0.052450
     50 H17          9.5280     0.8230     0.6400 h1         1 9RZ       0.052450
     51 H16          9.4440     1.8630     2.0810 h1         1 9RZ       0.052450
     52 H18         -0.9260    -0.4660     0.3820 ha         1 9RZ       0.150000
     53 H19         -2.2010    -5.3140     0.2870 ha         1 9RZ       0.124000
     54 H20         -0.0440    -5.7260     0.3710 ho         1 9RZ       0.468000
     55 HN13        -4.7840    -4.1910     0.1880 hn         1 9RZ       0.380000
     56 H23         -4.7920     2.9980    -0.2590 h1         1 9RZ       0.070200
     57 H22         -4.7620     2.5600     1.4550 h1         1 9RZ       0.070200
     58 H25         -6.4190     5.9310     2.1370 h1         1 9RZ       0.031700
     59 H26         -6.6470     4.3720     2.9570 h1         1 9RZ       0.031700
     60 H24         -5.1390     4.7060     2.0670 h1         1 9RZ       0.031700
     61 H27          2.3830     1.1760    -1.3930 ha         1 9RZ       0.119500
     62 H28          4.5260     2.3480    -1.1730 ha         1 9RZ       0.114500
     63 H29          4.1420    -2.3530     0.3910 ha         1 9RZ       0.119500
     64 H30          7.3610     0.4650     1.7520 h1         1 9RZ       0.048450
     65 H31          7.0310     2.2000     1.8080 h1         1 9RZ       0.048450
     66 O8           0.4060    -4.8550     0.3750 oh         1 9RZ      -0.515100
     67 C30          0.9730    -1.1190    -1.8290 c3         1 9RZ       0.103300
@<TRIPOS>BOND
     1     1    16 1   
     2     1    17 2   
     3     1    18 1   
     4     2    18 ar  
     5     2    20 ar  
     6     2    66 1   
     7     3     4 ar  
     8     3    20 ar  
     9     3    22 1   
    10     4     5 1   
    11     4    19 ar  
    12     5     6 1   
    13     5    21 2   
    14     6    23 2   
    15     6    24 1   
    16     7    10 1   
    17     7    24 1   
    18     7    35 1   
    19     7    36 1   
    20     8     9 1   
    21     8    25 1   
    22     8    26 1   
    23     8    37 1   
    24     9    10 1   
    25     9    38 1   
    26     9    39 1   
    27    10    40 1   
    28    10    41 1   
    29    11    16 1   
    30    11    28 ar  
    31    11    31 ar  
    32    12    29 ar  
    33    12    31 ar  
    34    12    42 1   
    35    13    14 1   
    36    13    32 1   
    37    13    46 1   
    38    13    47 1   
    39    14    33 1   
    40    14    48 1   
    41    14    49 1   
    42    15    33 1   
    43    15    34 1   
    44    15    50 1   
    45    15    51 1   
    46    16    67 1   
    47    18    19 ar  
    48    19    52 1   
    49    20    53 1   
    50    21    22 1   
    51    22    55 1   
    52    24    25 1   
    53    25    56 1   
    54    25    57 1   
    55    26    27 1   
    56    27    58 1   
    57    27    59 1   
    58    27    60 1   
    59    28    30 ar  
    60    28    61 1   
    61    29    30 ar  
    62    29    32 1   
    63    30    62 1   
    64    31    63 1   
    65    32    34 1   
    66    34    64 1   
    67    34    65 1   
    68    43    67 1   
    69    44    67 1   
    70    45    67 1   
    71    54    66 1   
@<TRIPOS>SUBSTRUCTURE
     1 9RZ         1 TEMP              0 ****  ****    0 ROOT
