@<TRIPOS>MOLECULE
9RZ
   67    71     1     0     0
SMALL
bcc


@<TRIPOS>ATOM
      1 C1           1.1580    -1.4810     0.5950 c          1 9RZ       0.703700
      2 C7          -0.5730    -3.3020     0.5700 ca         1 9RZ       0.213100
      3 C9          -2.8680    -2.7800     0.3720 ca         1 9RZ       0.001800
      4 C10         -2.5890    -1.4140     0.2240 ca         1 9RZ      -0.231900
      5 C11         -3.8730    -0.8080     0.0730 cc         1 9RZ       0.321900
      6 C14         -4.1080     0.6540    -0.0100 c          1 9RZ       0.624800
      7 C16         -6.2980     0.3870    -1.2160 c6         1 9RZ       0.104000
      8 C19         -6.7560     2.6220     0.5720 c6         1 9RZ       0.125100
      9 C20         -7.9310     1.8140     0.0380 c6         1 9RZ      -0.076400
     10 C21         -7.5160     0.3850    -0.3050 c6         1 9RZ      -0.098400
     11 C24          3.1100    -0.5130    -0.3720 ca         1 9RZ       0.006600
     12 C27          5.4950    -0.8010    -0.2080 ca         1 9RZ      -0.178500
     13 C32          7.1590     2.5420    -0.2670 c6         1 9RZ       0.162800
     14 C33          8.6080     2.8650    -0.5850 c6         1 9RZ       0.123900
     15 C35          9.3490     0.9290     0.4390 c6         1 9RZ       0.123900
     16 N2           1.8050    -1.0640    -0.5130 n          1 9RZ      -0.398000
     17 O3           1.6720    -1.4740     1.7020 o          1 9RZ      -0.568100
     18 C4          -0.2630    -1.9250     0.4270 ca         1 9RZ      -0.205600
     19 C5          -1.2550    -0.9900     0.2490 ca         1 9RZ       0.025000
     20 C6          -1.8760    -3.7500     0.5370 ca         1 9RZ      -0.272000
     21 N12         -4.8160    -1.7190     0.1460 nd         1 9RZ      -0.510100
     22 N13         -4.2150    -2.8900     0.3180 na         1 9RZ      -0.002100
     23 O15         -3.2440     1.3820     0.4720 o          1 9RZ      -0.603100
     24 N17         -5.2200     1.1430    -0.5950 n          1 9RZ      -0.458800
     25 C18         -5.5720     2.5400    -0.4030 c6         1 9RZ       0.057000
     26 O22         -7.1880     3.9470     0.7610 os         1 9RZ      -0.407600
     27 C23         -6.3400     4.7270     1.5700 c3         1 9RZ       0.121700
     28 C25          3.2920     0.8590    -0.3440 ca         1 9RZ      -0.086500
     29 C26          5.6990     0.5880    -0.1850 ca         1 9RZ       0.163600
     30 C28          4.5640     1.4060    -0.2480 ca         1 9RZ      -0.178500
     31 C29          4.2260    -1.3380    -0.3000 ca         1 9RZ      -0.086500
     32 N31          6.9890     1.1070    -0.1460 nh         1 9RZ      -0.654000
     33 O34          9.4930     2.3300     0.3710 os         1 9RZ      -0.398600
     34 C36          7.9330     0.5290     0.8010 c6         1 9RZ       0.162800
     35 H1          -5.9760    -0.6190    -1.4580 h1         1 9RZ       0.058700
     36 H2          -6.5410     0.8880    -2.1580 h1         1 9RZ       0.058700
     37 H3          -6.4290     2.1900     1.5320 h1         1 9RZ       0.043700
     38 H4          -8.7420     1.8090     0.7700 hc         1 9RZ       0.053700
     39 H5          -8.3130     2.3060    -0.8640 hc         1 9RZ       0.053700
     40 H7          -8.3390    -0.1390    -0.7940 hc         1 9RZ       0.054700
     41 H6          -7.2740    -0.1740     0.6030 hc         1 9RZ       0.054700
     42 H8           6.3380    -1.4790    -0.1820 ha         1 9RZ       0.132500
     43 H10          0.9380    -0.1510    -2.2120 h1         1 9RZ       0.040367
     44 H11          2.0560    -1.4820    -2.5380 h1         1 9RZ       0.040367
     45 H9           0.4420    -1.8230    -1.9250 h1         1 9RZ       0.040367
     46 H13          6.8460     3.0730     0.6450 h1         1 9RZ       0.048450
     47 H12          6.5500     2.9180    -1.0900 h1         1 9RZ       0.048450
     48 H14          8.8490     2.4810    -1.5860 h1         1 9RZ       0.052450
     49 H15          8.7470     3.9470    -0.5960 h1         1 9RZ       0.052450
     50 H17          9.6220     0.4680    -0.5200 h1         1 9RZ       0.052450
     51 H16         10.0400     0.5630     1.2000 h1         1 9RZ       0.052450
     52 H18         -1.0060     0.0570     0.1370 ha         1 9RZ       0.168000
     53 H19         -2.1170    -4.8010     0.6370 ha         1 9RZ       0.142000
     54 H20          0.1890    -5.0430     0.7720 ho         1 9RZ       0.429000
     55 HN13        -4.7720    -3.7240     0.4140 hn         1 9RZ       0.329700
     56 H23         -5.8600     2.9700    -1.3680 h1         1 9RZ       0.070200
     57 H22         -4.7080     3.0900    -0.0390 h1         1 9RZ       0.070200
     58 H25         -6.8470     5.6700     1.7690 h1         1 9RZ       0.031700
     59 H26         -6.1300     4.2370     2.5280 h1         1 9RZ       0.031700
     60 H24         -5.3810     4.9520     1.0910 h1         1 9RZ       0.031700
     61 H27          2.4350     1.5190    -0.3870 ha         1 9RZ       0.137500
     62 H28          4.6520     2.4830    -0.2120 ha         1 9RZ       0.132500
     63 H29          4.1040    -2.4130    -0.3330 ha         1 9RZ       0.137500
     64 H30          7.8770    -0.5570     0.7880 h1         1 9RZ       0.048450
     65 H31          7.7030     0.8550     1.8260 h1         1 9RZ       0.048450
     66 O8           0.4790    -4.1250     0.7130 oh         1 9RZ      -0.476100
     67 C30          1.2750    -1.1290    -1.8650 c3         1 9RZ       0.103300
@<TRIPOS>BOND
     1     1    16 1   
     2     1    17 2   
     3     1    18 1   
     4     2    18 ar  
     5     2    20 ar  
     6     2    66 1   
     7     3     4 ar  
     8     3    20 ar  
     9     3    22 1   
    10     4     5 1   
    11     4    19 ar  
    12     5     6 1   
    13     5    21 2   
    14     6    23 2   
    15     6    24 1   
    16     7    10 1   
    17     7    24 1   
    18     7    35 1   
    19     7    36 1   
    20     8     9 1   
    21     8    25 1   
    22     8    26 1   
    23     8    37 1   
    24     9    10 1   
    25     9    38 1   
    26     9    39 1   
    27    10    40 1   
    28    10    41 1   
    29    11    16 1   
    30    11    28 ar  
    31    11    31 ar  
    32    12    29 ar  
    33    12    31 ar  
    34    12    42 1   
    35    13    14 1   
    36    13    32 1   
    37    13    46 1   
    38    13    47 1   
    39    14    33 1   
    40    14    48 1   
    41    14    49 1   
    42    15    33 1   
    43    15    34 1   
    44    15    50 1   
    45    15    51 1   
    46    16    67 1   
    47    18    19 ar  
    48    19    52 1   
    49    20    53 1   
    50    21    22 1   
    51    22    55 1   
    52    24    25 1   
    53    25    56 1   
    54    25    57 1   
    55    26    27 1   
    56    27    58 1   
    57    27    59 1   
    58    27    60 1   
    59    28    30 ar  
    60    28    61 1   
    61    29    30 ar  
    62    29    32 1   
    63    30    62 1   
    64    31    63 1   
    65    32    34 1   
    66    34    64 1   
    67    34    65 1   
    68    43    67 1   
    69    44    67 1   
    70    45    67 1   
    71    54    66 1   
@<TRIPOS>SUBSTRUCTURE
     1 9RZ         1 TEMP              0 ****  ****    0 ROOT
