@<TRIPOS>MOLECULE
9S3
   69    73     1     0     0
SMALL
No Charge or Current Charge


@<TRIPOS>ATOM
      1 O           38.9620     6.1190     2.1660 o          1 9S3      -0.603100
      2 C17         40.1040     5.9290     2.5710 c          1 9S3       0.605100
      3 C18         40.3110     5.5860     4.0510 c3         1 9S3      -0.170100
      4 N2          41.2140     5.9350     1.6750 n          1 9S3      -0.243400
      5 C2          40.9330     5.8290     0.2070 c6         1 9S3       0.119700
      6 C1          40.6060     7.2120    -0.4190 c3         1 9S3      -0.102100
      7 C16         42.6020     5.8610     2.0830 ca         1 9S3      -0.035000
      8 C11         43.4120     4.8670     1.4940 ca         1 9S3      -0.118300
      9 C4          42.8420     4.1240     0.2740 c6         1 9S3       0.290800
     10 N1          43.8660     3.4720    -0.5610 nu         1 9S3      -0.982200
     11 C5          44.3030     2.1530    -0.4310 ca         1 9S3       0.325000
     12 C10         45.0060     1.5690    -1.4960 ca         1 9S3      -0.189000
     13 C9          45.4690     0.2440    -1.4040 ca         1 9S3      -0.065500
     14 C8          45.2290    -0.5000    -0.2380 ca         1 9S3      -0.163000
     15 C7          44.5300     0.0780     0.8340 ca         1 9S3      -0.065500
     16 C6          44.0680     1.4020     0.7370 ca         1 9S3      -0.189000
     17 C3          42.0920     5.1590    -0.5880 c6         1 9S3      -0.103400
     18 C15         43.0840     6.5500     3.2140 ca         1 9S3      -0.130000
     19 C14         44.3750     6.3080     3.7070 ca         1 9S3      -0.087000
     20 C13         45.2160     5.3390     3.1100 cp         1 9S3      -0.041000
     21 C12         44.7090     4.6240     1.9990 ca         1 9S3      -0.063000
     22 C19         46.5930     5.0740     3.6390 cp         1 9S3      -0.035000
     23 C30         46.8720     5.1460     5.0260 ca         1 9S3      -0.102500
     24 C29         48.1620     4.8920     5.5230 ca         1 9S3      -0.098500
     25 C22         49.2110     4.5610     4.6450 ca         1 9S3      -0.080300
     26 C21         48.9510     4.4870     3.2640 ca         1 9S3      -0.098500
     27 C20         47.6600     4.7390     2.7680 ca         1 9S3      -0.102500
     28 C23         50.6140     4.2820     5.1790 c3         1 9S3       0.213100
     29 N3          51.0480     2.8750     5.0030 n3         1 9S3      -0.721600
     30 C28         50.1720     1.9030     5.7210 c6         1 9S3       0.165300
     31 C27         50.5850     0.4390     5.4320 c6         1 9S3      -0.074900
     32 C26         52.0720     0.2000     5.7810 c6         1 9S3      -0.075400
     33 C25         52.9590     1.2410     5.0610 c6         1 9S3      -0.074900
     34 C24         52.4800     2.6830     5.3620 c6         1 9S3       0.165300
     35 H181        39.3930     5.1980     4.5060 hc         1 9S3       0.064700
     36 H182        41.1530     4.8970     4.1810 hc         1 9S3       0.064700
     37 H183        40.6060     6.4940     4.5850 hc         1 9S3       0.064700
     38 H2          40.0480     5.1870     0.0810 h1         1 9S3       0.079700
     39 H11C        40.3840     7.1190    -1.4890 hc         1 9S3       0.047033
     40 H12C        39.7320     7.6710     0.0570 hc         1 9S3       0.047033
     41 H13C        41.4470     7.9070    -0.3090 hc         1 9S3       0.047033
     42 H31C        41.6900     4.6900    -1.4960 hc         1 9S3       0.056700
     43 H32C        42.8080     5.9240    -0.9200 hc         1 9S3       0.056700
     44 H15         42.4740     7.3100     3.6960 ha         1 9S3       0.121000
     45 H4          42.1040     3.3820     0.6200 h1         1 9S3       0.064700
     46 H12         45.3330     3.8650     1.5380 ha         1 9S3       0.135000
     47 H1          44.1240     3.9350    -1.4320 hn         1 9S3       0.481000
     48 H10         45.1960     2.1400    -2.4000 ha         1 9S3       0.112000
     49 H6          43.5370     1.8370     1.5770 ha         1 9S3       0.112000
     50 H9          46.0130    -0.2020    -2.2340 ha         1 9S3       0.108500
     51 H8          45.5870    -1.5250    -0.1640 ha         1 9S3       0.113000
     52 H7          44.3470    -0.4980     1.7390 ha         1 9S3       0.108500
     53 H14         44.7290     6.8840     4.5580 ha         1 9S3       0.118000
     54 H30         46.0780     5.3850     5.7290 ha         1 9S3       0.114000
     55 H20         47.4920     4.6860     1.6960 ha         1 9S3       0.114000
     56 H29         48.3450     4.9490     6.5940 ha         1 9S3       0.119000
     57 H21         49.7530     4.2300     2.5750 ha         1 9S3       0.119000
     58 H231        51.3090     4.9510     4.6530 h1         1 9S3       0.037200
     59 H232        50.6570     4.5570     6.2420 h1         1 9S3       0.037200
     60 H281        50.2180     2.0820     6.8050 h1         1 9S3       0.031200
     61 H282        49.1220     2.0300     5.4170 h1         1 9S3       0.031200
     62 H241        53.1110     3.3870     4.7990 h1         1 9S3       0.031200
     63 H242        52.6350     2.8960     6.4310 h1         1 9S3       0.031200
     64 H271        49.9490    -0.2470     6.0070 hc         1 9S3       0.046200
     65 H272        50.4110     0.2130     4.3710 hc         1 9S3       0.046200
     66 H261        52.2150     0.2780     6.8680 hc         1 9S3       0.038700
     67 H262        52.3710    -0.8170     5.4930 hc         1 9S3       0.038700
     68 H251        54.0050     1.1240     5.3730 hc         1 9S3       0.046200
     69 H252        52.9330     1.0660     3.9770 hc         1 9S3       0.046200
@<TRIPOS>BOND
     1     1     2 2   
     2     2     3 1   
     3     2     4 1   
     4     3    35 1   
     5     3    36 1   
     6     3    37 1   
     7     4     5 1   
     8     4     7 1   
     9     5     6 1   
    10     5    17 1   
    11     5    38 1   
    12     6    39 1   
    13     6    40 1   
    14     6    41 1   
    15     7     8 ar  
    16     7    18 ar  
    17     8     9 1   
    18     8    21 ar  
    19     9    10 1   
    20     9    17 1   
    21     9    45 1   
    22    10    11 1   
    23    10    47 1   
    24    11    12 ar  
    25    11    16 ar  
    26    12    13 ar  
    27    12    48 1   
    28    13    14 ar  
    29    13    50 1   
    30    14    15 ar  
    31    14    51 1   
    32    15    16 ar  
    33    15    52 1   
    34    16    49 1   
    35    17    42 1   
    36    17    43 1   
    37    18    19 ar  
    38    18    44 1   
    39    19    20 ar  
    40    19    53 1   
    41    20    21 ar  
    42    20    22 1   
    43    21    46 1   
    44    22    23 ar  
    45    22    27 ar  
    46    23    24 ar  
    47    23    54 1   
    48    24    25 ar  
    49    24    56 1   
    50    25    26 ar  
    51    25    28 1   
    52    26    27 ar  
    53    26    57 1   
    54    27    55 1   
    55    28    29 1   
    56    28    58 1   
    57    28    59 1   
    58    29    30 1   
    59    29    34 1   
    60    30    31 1   
    61    30    60 1   
    62    30    61 1   
    63    31    32 1   
    64    31    64 1   
    65    31    65 1   
    66    32    33 1   
    67    32    66 1   
    68    32    67 1   
    69    33    34 1   
    70    33    68 1   
    71    33    69 1   
    72    34    62 1   
    73    34    63 1   
@<TRIPOS>SUBSTRUCTURE
     1 9S3         1 TEMP              0 ****  ****    0 ROOT
