@<TRIPOS>MOLECULE
9S3
   69    73     1     0     0
SMALL
abcg2


@<TRIPOS>ATOM
      1 O           39.0850     6.2150     1.5760 o          1 9S3      -0.603100
      2 C17         40.1300     5.9310     2.1640 c          1 9S3       0.605100
      3 C18         40.1000     5.5460     3.6250 c3         1 9S3      -0.170100
      4 N2          41.3270     5.9220     1.5060 n          1 9S3      -0.243400
      5 C2          41.3130     6.0860     0.0290 c6         1 9S3       0.119700
      6 C1          41.3830     7.5610    -0.3500 c3         1 9S3      -0.102100
      7 C16         42.5830     5.7040     2.1260 ca         1 9S3      -0.035000
      8 C11         43.4260     4.7610     1.5310 ca         1 9S3      -0.118300
      9 C4          42.9070     4.1200     0.2630 c6         1 9S3       0.290800
     10 N1          43.8750     3.2990    -0.4250 nu         1 9S3      -0.982200
     11 C5          44.0930     1.9720    -0.1310 ca         1 9S3       0.325000
     12 C10         44.8520     1.1800    -1.0130 ca         1 9S3      -0.189000
     13 C9          45.1070    -0.1520    -0.7300 ca         1 9S3      -0.065500
     14 C8          44.6170    -0.7410     0.4370 ca         1 9S3      -0.163000
     15 C7          43.8670     0.0360     1.3120 ca         1 9S3      -0.065500
     16 C6          43.6040     1.3760     1.0430 ca         1 9S3      -0.189000
     17 C3          42.4380     5.2710    -0.6320 c6         1 9S3      -0.103400
     18 C15         43.0160     6.4190     3.2380 ca         1 9S3      -0.130000
     19 C14         44.2620     6.1530     3.7880 ca         1 9S3      -0.087000
     20 C13         45.1140     5.2000     3.2180 cp         1 9S3      -0.041000
     21 C12         44.6790     4.5260     2.0710 ca         1 9S3      -0.063000
     22 C19         46.4460     4.9260     3.7990 cp         1 9S3      -0.035000
     23 C30         46.6480     4.9470     5.1820 ca         1 9S3      -0.102500
     24 C29         47.9010     4.6880     5.7250 ca         1 9S3      -0.098500
     25 C22         48.9960     4.4120     4.9090 ca         1 9S3      -0.080300
     26 C21         48.7980     4.3890     3.5280 ca         1 9S3      -0.098500
     27 C20         47.5470     4.6350     2.9820 ca         1 9S3      -0.102500
     28 C23         50.3640     4.1810     5.5020 c3         1 9S3       0.213100
     29 N3          51.0400     3.0040     4.9640 n3         1 9S3      -0.721600
     30 C28         50.3590     1.7670     5.3490 c6         1 9S3       0.165300
     31 C27         51.0170     0.5510     4.7090 c6         1 9S3      -0.074900
     32 C26         52.5020     0.4830     5.0630 c6         1 9S3      -0.075400
     33 C25         53.1850     1.8080     4.7280 c6         1 9S3      -0.074900
     34 C24         52.4460     2.9790     5.3660 c6         1 9S3       0.165300
     35 H181        39.1230     5.1130     3.8270 hc         1 9S3       0.064700
     36 H182        40.8840     4.8410     3.8950 hc         1 9S3       0.064700
     37 H183        40.2130     6.4340     4.2480 hc         1 9S3       0.064700
     38 H2          40.3550     5.6800    -0.2890 h1         1 9S3       0.079700
     39 H11C        41.3650     7.6700    -1.4360 hc         1 9S3       0.047033
     40 H12C        40.5380     8.1070     0.0680 hc         1 9S3       0.047033
     41 H13C        42.3100     8.0030     0.0220 hc         1 9S3       0.047033
     42 H31C        42.0750     4.8830    -1.5850 hc         1 9S3       0.056700
     43 H32C        43.2990     5.9120    -0.8380 hc         1 9S3       0.056700
     44 H15         42.3890     7.1890     3.6630 ha         1 9S3       0.121000
     45 H4          42.0300     3.5090     0.5180 h1         1 9S3       0.064700
     46 H12         45.3190     3.7920     1.6020 ha         1 9S3       0.135000
     47 H1          44.1430     3.6020    -1.3470 hn         1 9S3       0.481000
     48 H10         45.2330     1.6270    -1.9240 ha         1 9S3       0.112000
     49 H6          43.0320     1.9580     1.7510 ha         1 9S3       0.112000
     50 H9          45.6910    -0.7380    -1.4280 ha         1 9S3       0.108500
     51 H8          44.8180    -1.7810     0.6550 ha         1 9S3       0.113000
     52 H7          43.4780    -0.3990     2.2250 ha         1 9S3       0.108500
     53 H14         44.5890     6.7220     4.6480 ha         1 9S3       0.118000
     54 H30         45.8120     5.1400     5.8430 ha         1 9S3       0.114000
     55 H20         47.4270     4.6260     1.9060 ha         1 9S3       0.114000
     56 H29         48.0280     4.6920     6.8010 ha         1 9S3       0.119000
     57 H21         49.6350     4.1730     2.8760 ha         1 9S3       0.119000
     58 H231        50.9980     5.0460     5.2840 h1         1 9S3       0.037200
     59 H232        50.2740     4.1240     6.6000 h1         1 9S3       0.037200
     60 H281        50.3690     1.6540     6.4500 h1         1 9S3       0.031200
     61 H282        49.3150     1.8380     5.0420 h1         1 9S3       0.031200
     62 H241        52.9030     3.9250     5.0680 h1         1 9S3       0.031200
     63 H242        52.5330     2.9090     6.4670 h1         1 9S3       0.031200
     64 H271        50.4990    -0.3530     5.0380 hc         1 9S3       0.046200
     65 H272        50.9010     0.6160     3.6220 hc         1 9S3       0.046200
     66 H261        52.6070     0.2850     6.1360 hc         1 9S3       0.038700
     67 H262        52.9870    -0.3430     4.5370 hc         1 9S3       0.038700
     68 H251        54.2220     1.8070     5.0730 hc         1 9S3       0.046200
     69 H252        53.2030     1.9490     3.6430 hc         1 9S3       0.046200
@<TRIPOS>BOND
     1     1     2 2   
     2     2     3 1   
     3     2     4 1   
     4     3    35 1   
     5     3    36 1   
     6     3    37 1   
     7     4     5 1   
     8     4     7 1   
     9     5     6 1   
    10     5    17 1   
    11     5    38 1   
    12     6    39 1   
    13     6    40 1   
    14     6    41 1   
    15     7     8 ar  
    16     7    18 ar  
    17     8     9 1   
    18     8    21 ar  
    19     9    10 1   
    20     9    17 1   
    21     9    45 1   
    22    10    11 1   
    23    10    47 1   
    24    11    12 ar  
    25    11    16 ar  
    26    12    13 ar  
    27    12    48 1   
    28    13    14 ar  
    29    13    50 1   
    30    14    15 ar  
    31    14    51 1   
    32    15    16 ar  
    33    15    52 1   
    34    16    49 1   
    35    17    42 1   
    36    17    43 1   
    37    18    19 ar  
    38    18    44 1   
    39    19    20 ar  
    40    19    53 1   
    41    20    21 ar  
    42    20    22 1   
    43    21    46 1   
    44    22    23 ar  
    45    22    27 ar  
    46    23    24 ar  
    47    23    54 1   
    48    24    25 ar  
    49    24    56 1   
    50    25    26 ar  
    51    25    28 1   
    52    26    27 ar  
    53    26    57 1   
    54    27    55 1   
    55    28    29 1   
    56    28    58 1   
    57    28    59 1   
    58    29    30 1   
    59    29    34 1   
    60    30    31 1   
    61    30    60 1   
    62    30    61 1   
    63    31    32 1   
    64    31    64 1   
    65    31    65 1   
    66    32    33 1   
    67    32    66 1   
    68    32    67 1   
    69    33    34 1   
    70    33    68 1   
    71    33    69 1   
    72    34    62 1   
    73    34    63 1   
@<TRIPOS>SUBSTRUCTURE
     1 9S3         1 TEMP              0 ****  ****    0 ROOT
