@<TRIPOS>MOLECULE
9S4
   36    36     1     0     0
SMALL
abcg2


@<TRIPOS>ATOM
      1 O1B         23.6370    20.6190    65.5860 o          1 9S4      -0.571000
      2 C1          23.4090    19.9890    64.5650 c          1 9S4       0.696000
      3 O1A         22.5390    20.0720    63.6610 o          1 9S4      -0.571000
      4 C2          24.2070    18.8280    64.0340 c2         1 9S4       0.211900
      5 C3          23.6710    17.4170    64.1190 c6         1 9S4       0.124500
      6 F1          24.2510    16.9150    65.2950 f          1 9S4      -0.216000
      7 O6          25.2890    19.0890    63.4370 os         1 9S4      -0.230100
      8 C6          26.0260    18.1380    62.5340 c6         1 9S4       0.141300
      9 C7          27.4940    18.3950    62.7770 c3         1 9S4      -0.072400
     10 C8          27.9420    19.8070    62.4250 c3         1 9S4       0.174300
     11 C9          29.4110    20.0290    62.7460 c3         1 9S4       0.130600
     12 O9          30.2090    19.0560    62.0750 oh         1 9S4      -0.658000
     13 O8          27.6520    20.0080    61.0380 oh         1 9S4      -0.666000
     14 C5          25.6060    16.6810    62.7520 c6         1 9S4       0.078700
     15 C4          24.0940    16.5630    62.9330 c6         1 9S4       0.129300
     16 O4          23.7740    15.2070    63.1540 oh         1 9S4      -0.621000
     17 N5          26.0670    15.9050    61.6270 ns         1 9S4      -0.507900
     18 C10         27.0090    14.9340    61.7280 c          1 9S4       0.608100
     19 O10         27.5660    14.6600    62.7880 o          1 9S4      -0.587100
     20 C11         27.3390    14.2130    60.4450 c3         1 9S4      -0.173100
     21 H3          22.5920    17.4270    64.2550 h1         1 9S4       0.120700
     22 H4          25.7200    18.4780    61.5450 h1         1 9S4       0.101700
     23 H5          28.0500    17.6820    62.1680 hc         1 9S4       0.090200
     24 H6          27.7270    18.1840    63.8220 hc         1 9S4       0.090200
     25 H7          27.3790    20.5290    63.0270 h1         1 9S4       0.052700
     26 H8          29.5410    19.9590    63.8330 h1         1 9S4       0.032200
     27 H9          29.6910    21.0410    62.4340 h1         1 9S4       0.032200
     28 H10         31.1330    19.2220    62.2930 ho         1 9S4       0.447000
     29 H11         27.8100    20.9360    60.8240 ho         1 9S4       0.451000
     30 H12         26.1020    16.2840    63.6370 h1         1 9S4       0.129700
     31 H13         23.5850    16.9560    62.0450 h1         1 9S4       0.055700
     32 H14         22.8400    15.0650    62.9550 ho         1 9S4       0.459000
     33 H15         25.6390    16.0720    60.7290 hn         1 9S4       0.318500
     34 H16         28.4030    14.3380    60.2410 hc         1 9S4       0.066700
     35 H17         27.1490    13.1480    60.5860 hc         1 9S4       0.066700
     36 H18         26.7640    14.5720    59.5930 hc         1 9S4       0.066700
@<TRIPOS>BOND
     1     1     2 1   
     2     2     3 1   
     3     2     4 2   
     4     4     5 1   
     5     4     7 1   
     6     5     6 1   
     7     5    15 1   
     8     5    21 1   
     9     7     8 1   
    10     8     9 1   
    11     8    14 1   
    12     8    22 1   
    13     9    10 1   
    14     9    23 1   
    15     9    24 1   
    16    10    11 1   
    17    10    13 1   
    18    10    25 1   
    19    11    12 1   
    20    11    26 1   
    21    11    27 1   
    22    12    28 1   
    23    13    29 1   
    24    14    15 1   
    25    14    17 1   
    26    14    30 1   
    27    15    16 1   
    28    15    31 1   
    29    16    32 1   
    30    17    18 1   
    31    17    33 1   
    32    18    19 2   
    33    18    20 1   
    34    20    34 1   
    35    20    35 1   
    36    20    36 1   
@<TRIPOS>SUBSTRUCTURE
     1 9S4         1 TEMP              0 ****  ****    0 ROOT
