@<TRIPOS>MOLECULE
9S4
   36    36     1     0     0
SMALL
No Charge or Current Charge


@<TRIPOS>ATOM
      1 O1B         23.8550    21.0320    64.6930 o          1 9S4      -0.571000
      2 C1          23.2900    19.9490    64.5980 c          1 9S4       0.696000
      3 O1A         22.1170    19.7690    64.9060 o          1 9S4      -0.571000
      4 C2          24.0600    18.8170    64.0750 c2         1 9S4       0.211900
      5 C3          23.4290    17.4230    64.0040 c6         1 9S4       0.124500
      6 F1          23.6640    16.7180    65.2080 f          1 9S4      -0.216000
      7 O6          25.4030    18.9250    63.7550 os         1 9S4      -0.230100
      8 C6          25.9710    18.1250    62.6930 c6         1 9S4       0.141300
      9 C7          27.5110    18.3610    62.7310 c3         1 9S4      -0.072400
     10 C8          27.9490    19.8400    62.5890 c3         1 9S4       0.174300
     11 C9          29.4870    20.0360    62.7090 c3         1 9S4       0.130600
     12 O9          30.1590    19.4690    61.5680 oh         1 9S4      -0.658000
     13 O8          27.5330    20.3390    61.3110 oh         1 9S4      -0.666000
     14 C5          25.5470    16.6310    62.8260 c6         1 9S4       0.078700
     15 C4          23.9930    16.5780    62.8240 c6         1 9S4       0.129300
     16 O4          23.5290    15.2130    62.8740 oh         1 9S4      -0.621000
     17 N5          26.1030    15.7840    61.7420 ns         1 9S4      -0.507900
     18 C10         27.2760    15.0680    61.8030 c          1 9S4       0.608100
     19 O10         28.0060    15.0890    62.7830 o          1 9S4      -0.587100
     20 C11         27.5940    14.2520    60.5600 c3         1 9S4      -0.173100
     21 H3          22.3400    17.5080    63.8900 h1         1 9S4       0.120700
     22 H4          25.5910    18.5120    61.7350 h1         1 9S4       0.101700
     23 H5          27.9920    17.7880    61.9300 hc         1 9S4       0.090200
     24 H6          27.9140    17.9650    63.6710 hc         1 9S4       0.090200
     25 H7          27.4760    20.4220    63.3920 h1         1 9S4       0.052700
     26 H8          29.8390    19.5650    63.6360 h1         1 9S4       0.032200
     27 H9          29.7050    21.1100    62.7820 h1         1 9S4       0.032200
     28 H10         31.1260    19.5760    61.7180 ho         1 9S4       0.447000
     29 H11         28.3140    20.1890    60.7280 ho         1 9S4       0.451000
     30 H12         25.9090    16.2450    63.7920 h1         1 9S4       0.129700
     31 H13         23.6450    17.0400    61.8870 h1         1 9S4       0.055700
     32 H14         22.5600    15.2190    62.7100 ho         1 9S4       0.459000
     33 H15         25.5510    15.6620    60.9000 hn         1 9S4       0.318500
     34 H16         28.5360    13.6990    60.6480 hc         1 9S4       0.066700
     35 H17         26.7510    13.5850    60.3460 hc         1 9S4       0.066700
     36 H18         27.5940    14.9150    59.6880 hc         1 9S4       0.066700
@<TRIPOS>BOND
     1     1     2 1   
     2     2     3 1   
     3     2     4 2   
     4     4     5 1   
     5     4     7 1   
     6     5     6 1   
     7     5    15 1   
     8     5    21 1   
     9     7     8 1   
    10     8     9 1   
    11     8    14 1   
    12     8    22 1   
    13     9    10 1   
    14     9    23 1   
    15     9    24 1   
    16    10    11 1   
    17    10    13 1   
    18    10    25 1   
    19    11    12 1   
    20    11    26 1   
    21    11    27 1   
    22    12    28 1   
    23    13    29 1   
    24    14    15 1   
    25    14    17 1   
    26    14    30 1   
    27    15    16 1   
    28    15    31 1   
    29    16    32 1   
    30    17    18 1   
    31    17    33 1   
    32    18    19 2   
    33    18    20 1   
    34    20    34 1   
    35    20    35 1   
    36    20    36 1   
@<TRIPOS>SUBSTRUCTURE
     1 9S4         1 TEMP              0 ****  ****    0 ROOT
