@<TRIPOS>MOLECULE
9S5
   51    54     1     0     0
SMALL
No Charge or Current Charge


@<TRIPOS>ATOM
      1 N3          17.7760   -30.4290   -29.6090 nu         1 9S5      -0.905100
      2 C4          20.4000   -28.5810   -31.1020 ca         1 9S5       0.309900
      3 N2          18.0790   -28.0490   -31.6350 nb         1 9S5      -0.634000
      4 C7          18.2150   -30.1800   -28.3180 ca         1 9S5       0.399900
      5 C6          18.5380   -26.8000   -31.9270 ca         1 9S5       0.286900
      6 C9          19.0060   -29.6660   -25.8050 ca         1 9S5      -0.331600
      7 C13         17.8740   -27.6640   -21.5780 c5         1 9S5      -0.089400
      8 C8          19.9320   -29.7960   -26.8550 ca         1 9S5       0.191400
      9 N5          17.2510   -30.1060   -27.3880 nb         1 9S5      -0.254000
     10 C18         16.1030   -24.8860   -23.7810 c6         1 9S5       0.153600
     11 C16         18.7710   -25.5660   -22.8470 c6         1 9S5      -0.103900
     12 C19         16.2960   -25.9110   -22.6360 c6         1 9S5      -0.103900
     13 C1          17.7760   -31.0570   -31.9880 c3         1 9S5      -0.109100
     14 C2          18.5770   -30.3790   -30.8560 c3         1 9S5       0.214200
     15 C3          19.0280   -28.9460   -31.2200 ca         1 9S5       0.283300
     16 N1          20.8570   -27.3310   -31.3970 nb         1 9S5      -0.629000
     17 C5          19.9080   -26.4460   -31.8100 ca         1 9S5       0.284900
     18 N4          19.5380   -30.0430   -28.1180 nb         1 9S5      -0.254000
     19 C10         17.6490   -29.8540   -26.1270 ca         1 9S5       0.191400
     20 C11         19.4890   -29.4130   -24.4120 c          1 9S5       0.637700
     21 O1          20.5560   -29.8830   -24.0400 o          1 9S5      -0.608100
     22 N6          18.6700   -28.6960   -23.5170 n          1 9S5      -0.413800
     23 C12         19.0370   -28.5440   -22.0950 c5         1 9S5       0.098000
     24 C14         17.6560   -26.6660   -22.7560 c5         1 9S5      -0.065000
     25 C15         17.6930   -27.6690   -23.9580 c5         1 9S5       0.110000
     26 C17         18.4840   -24.5340   -23.9680 c6         1 9S5       0.153600
     27 O2          17.1880   -23.9350   -23.7670 os         1 9S5      -0.447000
     28 H8          16.7600   -30.4380   -29.7130 hn         1 9S5       0.516000
     29 H7          17.8000   -26.0710   -32.2600 h4         1 9S5       0.029100
     30 H13         18.1190   -27.1650   -20.6330 hc         1 9S5       0.056200
     31 H14         16.9800   -28.2730   -21.3980 hc         1 9S5       0.056200
     32 H9          21.0030   -29.6860   -26.6920 h4         1 9S5       0.031100
     33 H22         15.1550   -24.3460   -23.6450 h1         1 9S5       0.045200
     34 H21         16.0720   -25.3930   -24.7560 h1         1 9S5       0.045200
     35 H18         19.7550   -26.0170   -23.0280 hc         1 9S5       0.054950
     36 H17         18.8490   -25.0370   -21.8870 hc         1 9S5       0.054950
     37 H23         16.2440   -25.3870   -21.6720 hc         1 9S5       0.054950
     38 H24         15.4620   -26.6250   -22.6420 hc         1 9S5       0.054950
     39 H2          17.5460   -32.0970   -31.7300 hc         1 9S5       0.052367
     40 H3          16.8330   -30.5310   -32.1790 hc         1 9S5       0.052367
     41 H4          18.3590   -31.0610   -32.9170 hc         1 9S5       0.052367
     42 H1          19.4840   -30.9860   -30.7150 h1         1 9S5       0.075700
     43 H6          20.2460   -25.4400   -32.0520 h4         1 9S5       0.031100
     44 H10         16.8660   -29.8410   -25.3720 h4         1 9S5       0.031100
     45 H11         19.0820   -29.5100   -21.5750 h1         1 9S5       0.057200
     46 H12         20.0110   -28.0470   -21.9860 h1         1 9S5       0.057200
     47 H16         17.9890   -27.1900   -24.9000 h1         1 9S5       0.049700
     48 H15         16.7050   -28.1240   -24.1030 h1         1 9S5       0.049700
     49 H19         18.5160   -25.0120   -24.9570 h1         1 9S5       0.045200
     50 H20         19.2480   -23.7430   -23.9500 h1         1 9S5       0.045200
     51 H5          21.1430   -29.3020   -30.7640 h4         1 9S5       0.033100
@<TRIPOS>BOND
     1     1     4 1   
     2     1    14 1   
     3     1    28 1   
     4     2    15 ar  
     5     2    16 ar  
     6     2    51 1   
     7     3     5 ar  
     8     3    15 ar  
     9     4     9 ar  
    10     4    18 ar  
    11     5    17 ar  
    12     5    29 1   
    13     6     8 ar  
    14     6    19 ar  
    15     6    20 1   
    16     7    23 1   
    17     7    24 1   
    18     7    30 1   
    19     7    31 1   
    20     8    18 ar  
    21     8    32 1   
    22     9    19 ar  
    23    10    12 1   
    24    10    27 1   
    25    10    33 1   
    26    10    34 1   
    27    11    24 1   
    28    11    26 1   
    29    11    35 1   
    30    11    36 1   
    31    12    24 1   
    32    12    37 1   
    33    12    38 1   
    34    13    14 1   
    35    13    39 1   
    36    13    40 1   
    37    13    41 1   
    38    14    15 1   
    39    14    42 1   
    40    16    17 ar  
    41    17    43 1   
    42    19    44 1   
    43    20    21 2   
    44    20    22 1   
    45    22    23 1   
    46    22    25 1   
    47    23    45 1   
    48    23    46 1   
    49    24    25 1   
    50    25    47 1   
    51    25    48 1   
    52    26    27 1   
    53    26    49 1   
    54    26    50 1   
@<TRIPOS>SUBSTRUCTURE
     1 9S5         1 TEMP              0 ****  ****    0 ROOT
