@<TRIPOS>MOLECULE
9S5
   51    54     1     0     0
SMALL
bcc


@<TRIPOS>ATOM
      1 N3          17.6660   -30.3210   -29.5910 nu         1 9S5      -0.849900
      2 C4          20.5100   -28.9120   -31.3720 ca         1 9S5       0.309900
      3 N2          18.4050   -27.9300   -30.9380 nb         1 9S5      -0.634000
      4 C7          18.0960   -30.0860   -28.3440 ca         1 9S5       0.925900
      5 C6          18.9740   -26.7650   -31.2150 ca         1 9S5       0.286900
      6 C9          18.9230   -29.5600   -25.8460 ca         1 9S5      -0.462200
      7 C13         18.1720   -27.4990   -21.6330 c5         1 9S5      -0.089400
      8 C8          19.8010   -29.6650   -26.9220 ca         1 9S5       0.519700
      9 N5          17.1660   -30.0640   -27.3780 nb         1 9S5      -0.780000
     10 C18         15.8830   -25.0940   -23.6570 c6         1 9S5       0.130400
     11 C16         18.6540   -25.5540   -23.1770 c6         1 9S5      -0.103900
     12 C19         16.3040   -26.0330   -22.5390 c6         1 9S5      -0.103900
     13 C1          17.7170   -30.7960   -31.9600 c3         1 9S5      -0.109100
     14 C2          18.5300   -30.3550   -30.7470 c3         1 9S5       0.214200
     15 C3          19.1680   -29.0100   -31.0140 ca         1 9S5       0.283300
     16 N1          21.0790   -27.7520   -31.6560 nb         1 9S5      -0.629000
     17 C5          20.3100   -26.6730   -31.5780 ca         1 9S5       0.284900
     18 N4          19.4090   -29.9090   -28.1560 nb         1 9S5      -0.780000
     19 C10         17.5860   -29.8020   -26.1590 ca         1 9S5       0.519700
     20 C11         19.4610   -29.3380   -24.4800 c          1 9S5       0.704700
     21 O1          20.5450   -29.8220   -24.1660 o          1 9S5      -0.608100
     22 N6          18.7350   -28.6120   -23.6130 n          1 9S5      -0.480800
     23 C12         19.2150   -28.4220   -22.2460 c5         1 9S5       0.098000
     24 C14         17.6640   -26.6690   -22.8140 c5         1 9S5      -0.065000
     25 C15         17.6020   -27.7410   -23.9100 c5         1 9S5       0.110000
     26 C17         18.0960   -24.6220   -24.2430 c6         1 9S5       0.130400
     27 O2          16.8430   -24.0850   -23.8800 os         1 9S5      -0.400600
     28 H8          16.6700   -30.3920   -29.7250 hn         1 9S5       0.460800
     29 H7          18.3560   -25.8770   -31.1490 h4         1 9S5       0.029100
     30 H13         18.5830   -26.8860   -20.8300 hc         1 9S5       0.056200
     31 H14         17.3460   -28.0830   -21.2160 hc         1 9S5       0.056200
     32 H9          20.8670   -29.5340   -26.7720 h4         1 9S5       0.031100
     33 H22         14.9470   -24.5930   -23.4020 h1         1 9S5       0.045200
     34 H21         15.7020   -25.6640   -24.5810 h1         1 9S5       0.045200
     35 H18         19.6060   -25.9620   -23.5300 hc         1 9S5       0.054950
     36 H17         18.8780   -24.9750   -22.2750 hc         1 9S5       0.054950
     37 H23         16.3550   -25.4720   -21.6000 hc         1 9S5       0.054950
     38 H24         15.5430   -26.8060   -22.4030 hc         1 9S5       0.054950
     39 H2          17.2810   -31.7810   -31.7940 hc         1 9S5       0.052367
     40 H3          16.9140   -30.0870   -32.1660 hc         1 9S5       0.052367
     41 H4          18.3550   -30.8510   -32.8410 hc         1 9S5       0.052367
     42 H1          19.3280   -31.0820   -30.5780 h1         1 9S5       0.075700
     43 H6          20.7600   -25.7140   -31.8050 h4         1 9S5       0.031100
     44 H10         16.8240   -29.8140   -25.3880 h4         1 9S5       0.031100
     45 H11         19.2940   -29.3740   -21.7200 h1         1 9S5       0.057200
     46 H12         20.2070   -27.9630   -22.2480 h1         1 9S5       0.057200
     47 H16         17.6720   -27.3390   -24.9220 h1         1 9S5       0.049700
     48 H15         16.6540   -28.2850   -23.8350 h1         1 9S5       0.049700
     49 H19         18.0200   -25.1490   -25.2060 h1         1 9S5       0.045200
     50 H20         18.7710   -23.7780   -24.3950 h1         1 9S5       0.045200
     51 H5          21.1320   -29.7990   -31.4210 h4         1 9S5       0.033100
@<TRIPOS>BOND
     1     1     4 1   
     2     1    14 1   
     3     1    28 1   
     4     2    15 ar  
     5     2    16 ar  
     6     2    51 1   
     7     3     5 ar  
     8     3    15 ar  
     9     4     9 ar  
    10     4    18 ar  
    11     5    17 ar  
    12     5    29 1   
    13     6     8 ar  
    14     6    19 ar  
    15     6    20 1   
    16     7    23 1   
    17     7    24 1   
    18     7    30 1   
    19     7    31 1   
    20     8    18 ar  
    21     8    32 1   
    22     9    19 ar  
    23    10    12 1   
    24    10    27 1   
    25    10    33 1   
    26    10    34 1   
    27    11    24 1   
    28    11    26 1   
    29    11    35 1   
    30    11    36 1   
    31    12    24 1   
    32    12    37 1   
    33    12    38 1   
    34    13    14 1   
    35    13    39 1   
    36    13    40 1   
    37    13    41 1   
    38    14    15 1   
    39    14    42 1   
    40    16    17 ar  
    41    17    43 1   
    42    19    44 1   
    43    20    21 2   
    44    20    22 1   
    45    22    23 1   
    46    22    25 1   
    47    23    45 1   
    48    23    46 1   
    49    24    25 1   
    50    25    47 1   
    51    25    48 1   
    52    26    27 1   
    53    26    49 1   
    54    26    50 1   
@<TRIPOS>SUBSTRUCTURE
     1 9S5         1 TEMP              0 ****  ****    0 ROOT
