@<TRIPOS>MOLECULE
9S6
   70    73     1     0     0
SMALL
abcg2


@<TRIPOS>ATOM
      1 C12          0.0770     0.7710    -1.0190 ca         1 9S6      -0.062500
      2 C13         -0.6260     0.1400     0.0090 ca         1 9S6      -0.092800
      3 C14          0.1190    -0.3770     1.0620 ca         1 9S6      -0.062500
      4 C17         -2.7650     1.3940    -0.2670 ca         1 9S6      -0.010800
      5 C18         -2.4760     2.4790     0.5600 ca         1 9S6      -0.190000
      6 C22         -3.6330     1.5720    -1.3410 ca         1 9S6      -0.140000
      7 C24         -2.8060    -1.0400     0.2170 ce         1 9S6      -0.040400
      8 C25         -4.3040    -1.0720     0.3640 c3         1 9S6      -0.038200
      9 C26         -5.0050    -1.8180    -0.7720 c3         1 9S6      -0.078400
     10 C27         -6.5110    -1.7590    -0.6180 c3         1 9S6       0.162600
     11 C29         -2.1370    -2.3600     0.3220 ca         1 9S6      -0.052800
     12 C30         -2.3380    -3.1840     1.4290 ca         1 9S6      -0.096000
     13 C31         -1.7250    -4.4270     1.5110 ca         1 9S6      -0.112500
     14 C32         -0.9150    -4.8760     0.4770 ca         1 9S6      -0.108000
     15 C34         -1.3280    -2.8270    -0.7150 ca         1 9S6      -0.096000
     16 C01          8.6670     0.0890    -0.8980 c3         1 9S6      -0.105100
     17 C03          8.0530     2.3550     0.0010 c3         1 9S6      -0.105100
     18 C05          5.6900     0.7710     1.2740 c6         1 9S6       0.167300
     19 C06          4.3190     0.1180     1.2700 c6         1 9S6       0.201800
     20 C08          4.3390     0.1830    -1.1310 c6         1 9S6       0.201800
     21 C09          5.7080     0.8350    -1.1000 c6         1 9S6       0.167300
     22 C10          2.2090     0.3360     0.0550 ca         1 9S6       0.307000
     23 C11          1.4550     0.8610    -1.0070 ca         1 9S6      -0.169500
     24 C15          1.5030    -0.2900     1.0890 ca         1 9S6      -0.169500
     25 C16         -2.1060     0.0870    -0.0110 cf         1 9S6       0.003600
     26 C19         -3.0660     3.7180     0.3370 ca         1 9S6       0.135100
     27 C20         -3.9430     3.8870    -0.7340 ca         1 9S6      -0.144000
     28 C21         -4.2140     2.8140    -1.5650 ca         1 9S6      -0.080000
     29 C33         -0.7230    -4.0720    -0.6400 ca         1 9S6      -0.112500
     30 N04          6.4350     0.4240     0.0830 n3         1 9S6      -0.733600
     31 N07          3.5910     0.4920     0.0770 nh         1 9S6      -0.797400
     32 O23         -2.8220     4.7880     1.1220 oh         1 9S6      -0.536100
     33 O28         -7.1140    -2.4620    -1.6840 oh         1 9S6      -0.661000
     34 H121        -0.4650     1.2080    -1.8500 ha         1 9S6       0.115500
     35 H141        -0.3860    -0.8630     1.8870 ha         1 9S6       0.115500
     36 H181        -1.7840     2.3500     1.3860 ha         1 9S6       0.120000
     37 H221        -3.8440     0.7470    -2.0090 ha         1 9S6       0.120000
     38 H252        -4.5560    -1.5630     1.3110 hc         1 9S6       0.050200
     39 H251        -4.7000    -0.0590     0.4370 hc         1 9S6       0.050200
     40 H261        -4.7160    -1.3810    -1.7320 hc         1 9S6       0.057200
     41 H262        -4.6790    -2.8610    -0.7890 hc         1 9S6       0.057200
     42 H272        -6.7920    -2.1870     0.3540 h1         1 9S6       0.015200
     43 H271        -6.8320    -0.7080    -0.6030 h1         1 9S6       0.015200
     44 H301        -2.9650    -2.8490     2.2460 ha         1 9S6       0.114500
     45 H311        -1.8830    -5.0470     2.3840 ha         1 9S6       0.112000
     46 H321        -0.4420    -5.8480     0.5380 ha         1 9S6       0.111000
     47 H341        -1.1780    -2.2080    -1.5900 ha         1 9S6       0.114500
     48 H013         8.4340     0.3890    -1.9220 hc         1 9S6       0.037533
     49 H011         9.7280     0.2880    -0.7420 hc         1 9S6       0.037533
     50 H012         8.5090    -0.9860    -0.8140 hc         1 9S6       0.037533
     51 H021         8.1940     0.5420     1.1180 h1         1 9S6       0.051700
     52 H032         7.8210     2.7160    -1.0030 hc         1 9S6       0.037533
     53 H031         7.4410     2.9170     0.7080 hc         1 9S6       0.037533
     54 H033         9.0960     2.6030     0.2030 hc         1 9S6       0.037533
     55 H051         5.5560     1.8590     1.3950 h1         1 9S6       0.038450
     56 H052         6.2350     0.4160     2.1520 h1         1 9S6       0.038450
     57 H061         4.4300    -0.9740     1.3590 h1         1 9S6       0.043450
     58 H062         3.7800     0.4650     2.1520 h1         1 9S6       0.043450
     59 H081         3.8080     0.5430    -2.0100 h1         1 9S6       0.043450
     60 H082         4.4570    -0.9050    -1.2440 h1         1 9S6       0.043450
     61 H092         6.2470     0.5210    -1.9950 h1         1 9S6       0.038450
     62 H091         5.5790     1.9280    -1.1630 h1         1 9S6       0.038450
     63 H111         1.9460     1.3770    -1.8210 ha         1 9S6       0.113000
     64 H151         2.0250    -0.7240     1.9310 ha         1 9S6       0.113000
     65 H201        -4.3980     4.8540    -0.9100 ha         1 9S6       0.127000
     66 H211        -4.8850     2.9490    -2.4030 ha         1 9S6       0.115000
     67 H331        -0.1030    -4.4180    -1.4570 ha         1 9S6       0.112000
     68 H231        -2.2050     4.5570     1.8260 ho         1 9S6       0.465000
     69 H281        -8.0670    -2.4020    -1.5800 ho         1 9S6       0.441000
     70 C02          7.8340     0.8460     0.1290 c3         1 9S6       0.190500
@<TRIPOS>BOND
     1     1     2 ar  
     2     1    23 ar  
     3     1    34 1   
     4     2     3 ar  
     5     2    25 1   
     6     3    24 ar  
     7     3    35 1   
     8     4     5 ar  
     9     4     6 ar  
    10     4    25 1   
    11     5    26 ar  
    12     5    36 1   
    13     6    28 ar  
    14     6    37 1   
    15     7     8 1   
    16     7    11 1   
    17     7    25 2   
    18     8     9 1   
    19     8    38 1   
    20     8    39 1   
    21     9    10 1   
    22     9    40 1   
    23     9    41 1   
    24    10    33 1   
    25    10    42 1   
    26    10    43 1   
    27    11    12 ar  
    28    11    15 ar  
    29    12    13 ar  
    30    12    44 1   
    31    13    14 ar  
    32    13    45 1   
    33    14    29 ar  
    34    14    46 1   
    35    15    29 ar  
    36    15    47 1   
    37    16    48 1   
    38    16    49 1   
    39    16    50 1   
    40    16    70 1   
    41    17    52 1   
    42    17    53 1   
    43    17    54 1   
    44    17    70 1   
    45    18    19 1   
    46    18    30 1   
    47    18    55 1   
    48    18    56 1   
    49    19    31 1   
    50    19    57 1   
    51    19    58 1   
    52    20    21 1   
    53    20    31 1   
    54    20    59 1   
    55    20    60 1   
    56    21    30 1   
    57    21    61 1   
    58    21    62 1   
    59    22    23 ar  
    60    22    24 ar  
    61    22    31 1   
    62    23    63 1   
    63    24    64 1   
    64    26    27 ar  
    65    26    32 1   
    66    27    28 ar  
    67    27    65 1   
    68    28    66 1   
    69    29    67 1   
    70    30    70 1   
    71    32    68 1   
    72    33    69 1   
    73    51    70 1   
@<TRIPOS>SUBSTRUCTURE
     1 9S6         1 TEMP              0 ****  ****    0 ROOT
