@<TRIPOS>MOLECULE
9S6
   70    73     1     0     0
SMALL
No Charge or Current Charge


@<TRIPOS>ATOM
      1 C12          0.0030     0.9090    -0.9160 ca         1 9S6      -0.062500
      2 C13         -0.6850     0.1610     0.0610 ca         1 9S6      -0.092800
      3 C14          0.0620    -0.4870     1.0650 ca         1 9S6      -0.062500
      4 C17         -2.7690     1.4100    -0.1850 ca         1 9S6      -0.010800
      5 C18         -2.4440     2.4850     0.6680 ca         1 9S6      -0.190000
      6 C22         -3.6450     1.6360    -1.2660 ca         1 9S6      -0.140000
      7 C24         -2.8760    -1.0890     0.2340 ce         1 9S6      -0.040400
      8 C25         -4.4050    -1.1230     0.2920 c3         1 9S6      -0.038200
      9 C26         -5.0410    -1.8450    -0.9180 c3         1 9S6      -0.078400
     10 C27         -6.5810    -1.8080    -0.8990 c3         1 9S6       0.162600
     11 C29         -2.2370    -2.4310     0.3870 ca         1 9S6      -0.052800
     12 C30         -2.4430    -3.2040     1.5480 ca         1 9S6      -0.096000
     13 C31         -1.8320    -4.4630     1.6790 ca         1 9S6      -0.112500
     14 C32         -1.0110    -4.9580     0.6520 ca         1 9S6      -0.108000
     15 C34         -1.4110    -2.9340    -0.6380 ca         1 9S6      -0.096000
     16 C01          8.8240     0.1530    -0.9900 c3         1 9S6      -0.105100
     17 C03          8.1280     2.4430    -0.1210 c3         1 9S6      -0.105100
     18 C05          5.7800     0.9060     1.2700 c6         1 9S6       0.167300
     19 C06          4.3560     0.2630     1.3600 c6         1 9S6       0.201800
     20 C08          4.3390     0.0430    -1.1220 c6         1 9S6       0.201800
     21 C09          5.7670     0.6820    -1.1690 c6         1 9S6       0.167300
     22 C10          2.1520     0.3360     0.0990 ca         1 9S6       0.307000
     23 C11          1.4060     0.9920    -0.8960 ca         1 9S6      -0.169500
     24 C15          1.4650    -0.4010     1.0830 ca         1 9S6      -0.169500
     25 C16         -2.1680     0.0730     0.0380 cf         1 9S6       0.003600
     26 C19         -3.0000     3.7560     0.4540 ca         1 9S6       0.135100
     27 C20         -3.8800     3.9680    -0.6180 ca         1 9S6      -0.144000
     28 C21         -4.2020     2.9080    -1.4810 ca         1 9S6      -0.080000
     29 C33         -0.8000    -4.1920    -0.5060 ca         1 9S6      -0.112500
     30 N04          6.5590     0.4330     0.0810 n3         1 9S6      -0.733600
     31 N07          3.5640     0.4340     0.1000 nh         1 9S6      -0.797400
     32 O23         -2.6870     4.7900     1.2850 oh         1 9S6      -0.536100
     33 O28         -7.0970    -2.4970    -2.0420 oh         1 9S6      -0.661000
     34 H121        -0.5470     1.4230    -1.7010 ha         1 9S6       0.115500
     35 H141        -0.4430    -1.0530     1.8440 ha         1 9S6       0.115500
     36 H181        -1.7620     2.3210     1.4990 ha         1 9S6       0.120000
     37 H221        -3.8860     0.8270    -1.9490 ha         1 9S6       0.120000
     38 H252        -4.7340    -1.6300     1.2070 hc         1 9S6       0.050200
     39 H251        -4.8280    -0.1150     0.3680 hc         1 9S6       0.050200
     40 H261        -4.6820    -1.3860    -1.8470 hc         1 9S6       0.057200
     41 H262        -4.7080    -2.8900    -0.9310 hc         1 9S6       0.057200
     42 H272        -6.9440    -2.2790     0.0240 h1         1 9S6       0.015200
     43 H271        -6.9190    -0.7630    -0.9010 h1         1 9S6       0.015200
     44 H301        -3.0670    -2.8260     2.3540 ha         1 9S6       0.114500
     45 H311        -1.9930    -5.0540     2.5780 ha         1 9S6       0.112000
     46 H321        -0.5370    -5.9320     0.7550 ha         1 9S6       0.111000
     47 H341        -1.2440    -2.3450    -1.5370 ha         1 9S6       0.114500
     48 H013         8.5460     0.4280    -2.0140 hc         1 9S6       0.037533
     49 H011         9.8870     0.3870    -0.8560 hc         1 9S6       0.037533
     50 H012         8.7010    -0.9300    -0.8750 hc         1 9S6       0.037533
     51 H021         8.4170     0.6680     1.0260 h1         1 9S6       0.051700
     52 H032         7.7390     2.7770    -1.0900 hc         1 9S6       0.037533
     53 H031         7.6080     2.9910     0.6710 hc         1 9S6       0.037533
     54 H033         9.1870     2.7230    -0.0720 hc         1 9S6       0.037533
     55 H051         5.6540     1.9980     1.2350 h1         1 9S6       0.038450
     56 H052         6.3240     0.6760     2.1980 h1         1 9S6       0.038450
     57 H061         4.4690    -0.8070     1.5860 h1         1 9S6       0.043450
     58 H062         3.8260     0.7230     2.2070 h1         1 9S6       0.043450
     59 H081         3.8030     0.3360    -2.0360 h1         1 9S6       0.043450
     60 H082         4.4460    -1.0520    -1.1520 h1         1 9S6       0.043450
     61 H092         6.2870     0.2780    -2.0490 h1         1 9S6       0.038450
     62 H091         5.6490     1.7630    -1.3350 h1         1 9S6       0.038450
     63 H111         1.9140     1.5800    -1.6540 ha         1 9S6       0.113000
     64 H151         2.0110    -0.9210     1.8630 ha         1 9S6       0.113000
     65 H201        -4.3080     4.9540    -0.7820 ha         1 9S6       0.127000
     66 H211        -4.8780     3.0730    -2.3180 ha         1 9S6       0.115000
     67 H331        -0.1630    -4.5730    -1.3020 ha         1 9S6       0.112000
     68 H231        -2.0630     4.4600     1.9660 ho         1 9S6       0.465000
     69 H281        -8.0770    -2.4490    -1.9860 ho         1 9S6       0.441000
     70 C02          7.9710     0.9110     0.0510 c3         1 9S6       0.190500
@<TRIPOS>BOND
     1     1     2 ar  
     2     1    23 ar  
     3     1    34 1   
     4     2     3 ar  
     5     2    25 1   
     6     3    24 ar  
     7     3    35 1   
     8     4     5 ar  
     9     4     6 ar  
    10     4    25 1   
    11     5    26 ar  
    12     5    36 1   
    13     6    28 ar  
    14     6    37 1   
    15     7     8 1   
    16     7    11 1   
    17     7    25 2   
    18     8     9 1   
    19     8    38 1   
    20     8    39 1   
    21     9    10 1   
    22     9    40 1   
    23     9    41 1   
    24    10    33 1   
    25    10    42 1   
    26    10    43 1   
    27    11    12 ar  
    28    11    15 ar  
    29    12    13 ar  
    30    12    44 1   
    31    13    14 ar  
    32    13    45 1   
    33    14    29 ar  
    34    14    46 1   
    35    15    29 ar  
    36    15    47 1   
    37    16    48 1   
    38    16    49 1   
    39    16    50 1   
    40    16    70 1   
    41    17    52 1   
    42    17    53 1   
    43    17    54 1   
    44    17    70 1   
    45    18    19 1   
    46    18    30 1   
    47    18    55 1   
    48    18    56 1   
    49    19    31 1   
    50    19    57 1   
    51    19    58 1   
    52    20    21 1   
    53    20    31 1   
    54    20    59 1   
    55    20    60 1   
    56    21    30 1   
    57    21    61 1   
    58    21    62 1   
    59    22    23 ar  
    60    22    24 ar  
    61    22    31 1   
    62    23    63 1   
    63    24    64 1   
    64    26    27 ar  
    65    26    32 1   
    66    27    28 ar  
    67    27    65 1   
    68    28    66 1   
    69    29    67 1   
    70    30    70 1   
    71    32    68 1   
    72    33    69 1   
    73    51    70 1   
@<TRIPOS>SUBSTRUCTURE
     1 9S6         1 TEMP              0 ****  ****    0 ROOT
