@<TRIPOS>MOLECULE
9S7
   37    37     1     0     0
SMALL
bcc


@<TRIPOS>ATOM
      1 O1B         -3.4500     1.5500    -0.6110 o          1 9S7      -0.808300
      2 C1          -2.6790     2.2110     0.0970 c          1 9S7       0.954600
      3 O1A         -2.8240     3.3760     0.5130 o          1 9S7      -0.808300
      4 C2          -1.3710     1.5320     0.5700 c6         1 9S7      -0.030900
      5 C3          -0.1570     2.3770     0.2440 c6         1 9S7       0.133600
      6 F1          -0.1160     2.5980    -1.1350 f          1 9S7      -0.233300
      7 O6          -1.2460     0.2510     0.0040 os         1 9S7      -0.358600
      8 C6          -0.1320    -0.4740     0.4590 c6         1 9S7       0.098100
      9 C7          -0.2210    -1.8710    -0.1520 c3         1 9S7       0.169100
     10 C8          -1.4570    -2.6160     0.3490 c3         1 9S7      -0.116400
     11 C9          -1.4470    -4.0790    -0.0540 c3         1 9S7       0.140400
     12 O9          -2.5890    -4.7030     0.4950 oh         1 9S7      -0.601800
     13 O7          -0.1540    -1.8270    -1.5600 oh         1 9S7      -0.602800
     14 C5           1.1700     0.2580     0.0970 c6         1 9S7       0.083700
     15 C4           1.1220     1.6730     0.6680 c6         1 9S7       0.096100
     16 O4           2.2800     2.3560     0.2680 oh         1 9S7      -0.579800
     17 N5           2.3110    -0.4600     0.6040 ns         1 9S7      -0.561900
     18 C10          3.4030    -0.7650    -0.1220 c          1 9S7       0.674100
     19 O10          3.5170    -0.5070    -1.3120 o          1 9S7      -0.593100
     20 C11          4.5020    -1.4620     0.6420 c3         1 9S7      -0.182100
     21 H2          -1.4220     1.4560     1.6690 h1         1 9S7       0.018700
     22 H3          -0.2400     3.3490     0.7350 h1         1 9S7       0.070700
     23 H4          -0.1700    -0.5850     1.5580 h1         1 9S7       0.013700
     24 H5           0.6660    -2.4240     0.1730 h1         1 9S7       0.051700
     25 H6          -1.4850    -2.5490     1.4410 hc         1 9S7       0.070200
     26 H7          -2.3650    -2.1330    -0.0230 hc         1 9S7       0.070200
     27 H8          -1.4340    -4.1620    -1.1470 h1         1 9S7       0.015700
     28 H9          -0.5230    -4.5470     0.3120 h1         1 9S7       0.015700
     29 H10         -2.5800    -5.6280     0.2310 ho         1 9S7       0.390000
     30 H11         -0.8930    -1.2940    -1.8740 ho         1 9S7       0.432000
     31 H12          1.2640     0.3040    -0.9890 h1         1 9S7       0.127700
     32 H13          1.0730     1.5900     1.7660 h1         1 9S7       0.012700
     33 H14          2.3460     3.1690     0.7790 ho         1 9S7       0.394000
     34 H15          2.3260    -0.6730     1.5890 hn         1 9S7       0.293500
     35 H16          4.2210    -1.7400     1.6560 hc         1 9S7       0.049700
     36 H17          4.8020    -2.3610     0.1060 hc         1 9S7       0.049700
     37 H18          5.3730    -0.8090     0.6960 hc         1 9S7       0.049700
@<TRIPOS>BOND
     1     1     2 1   
     2     2     3 1   
     3     2     4 1   
     4     4     5 1   
     5     4     7 1   
     6     4    21 1   
     7     5     6 1   
     8     5    15 1   
     9     5    22 1   
    10     7     8 1   
    11     8     9 1   
    12     8    14 1   
    13     8    23 1   
    14     9    10 1   
    15     9    13 1   
    16     9    24 1   
    17    10    11 1   
    18    10    25 1   
    19    10    26 1   
    20    11    12 1   
    21    11    27 1   
    22    11    28 1   
    23    12    29 1   
    24    13    30 1   
    25    14    15 1   
    26    14    17 1   
    27    14    31 1   
    28    15    16 1   
    29    15    32 1   
    30    16    33 1   
    31    17    18 1   
    32    17    34 1   
    33    18    19 2   
    34    18    20 1   
    35    20    35 1   
    36    20    36 1   
    37    20    37 1   
@<TRIPOS>SUBSTRUCTURE
     1 9S7         1 TEMP              0 ****  ****    0 ROOT
