@<TRIPOS>MOLECULE
9S7
   37    37     1     0     0
SMALL
No Charge or Current Charge


@<TRIPOS>ATOM
      1 O1B         -3.2780     2.0040    -0.9530 o          1 9S7      -0.703000
      2 C1          -2.6940     2.4390     0.0340 c          1 9S7       0.744000
      3 O1A         -3.3410     2.9450     0.9420 o          1 9S7      -0.703000
      4 C2          -1.3990     1.6830     0.4830 c6         1 9S7      -0.007700
      5 C3          -0.1450     2.5320     0.1620 c6         1 9S7       0.152300
      6 F1          -0.0760     2.7370    -1.2360 f          1 9S7      -0.252000
      7 O6          -1.2550     0.3480    -0.0890 os         1 9S7      -0.405000
      8 C6          -0.1170    -0.4050     0.4070 c6         1 9S7       0.121300
      9 C7          -0.2230    -1.8290    -0.2380 c3         1 9S7       0.192300
     10 C8          -1.2890    -2.7200     0.4420 c3         1 9S7      -0.116400
     11 C9          -1.3200    -4.1660    -0.0900 c3         1 9S7       0.163600
     12 O9          -2.2760    -4.9290     0.6530 oh         1 9S7      -0.664000
     13 O7          -0.5550    -1.7060    -1.6280 oh         1 9S7      -0.725000
     14 C5           1.2140     0.3470     0.0710 c6         1 9S7       0.083700
     15 C4           1.1480     1.8000     0.6390 c6         1 9S7       0.119300
     16 O4           2.3360     2.5410     0.2920 oh         1 9S7      -0.642000
     17 N5           2.3980    -0.3590     0.6160 ns         1 9S7      -0.494900
     18 C10          3.2580    -1.1640    -0.0950 c          1 9S7       0.607100
     19 O10          3.1170    -1.3910    -1.2870 o          1 9S7      -0.593100
     20 C11          4.4010    -1.7510     0.7230 c3         1 9S7      -0.182100
     21 H2          -1.4630     1.5690     1.5750 h1         1 9S7       0.018700
     22 H3          -0.2250     3.5190     0.6410 h1         1 9S7       0.070700
     23 H4          -0.2060    -0.5030     1.4990 h1         1 9S7       0.013700
     24 H5           0.7440    -2.3350    -0.1220 h1         1 9S7       0.051700
     25 H6          -1.0830    -2.7510     1.5190 hc         1 9S7       0.070200
     26 H7          -2.2800    -2.2660     0.3230 hc         1 9S7       0.070200
     27 H8          -1.5860    -4.1630    -1.1560 h1         1 9S7       0.015700
     28 H9          -0.3210    -4.6110     0.0090 h1         1 9S7       0.015700
     29 H10         -2.2720    -5.8370     0.2740 ho         1 9S7       0.429000
     30 H11         -1.1150    -0.8930    -1.6630 ho         1 9S7       0.531000
     31 H12          1.3070     0.4100    -1.0240 h1         1 9S7       0.127700
     32 H13          1.0910     1.7230     1.7350 h1         1 9S7       0.012700
     33 H14          2.2970     3.3960     0.7740 ho         1 9S7       0.433000
     34 H15          2.6280    -0.2150     1.5910 hn         1 9S7       0.293500
     35 H16          3.9850    -2.2930     1.5810 hc         1 9S7       0.049700
     36 H17          5.0660    -2.3870     0.1270 hc         1 9S7       0.049700
     37 H18          4.9500    -0.9360     1.2080 hc         1 9S7       0.049700
@<TRIPOS>BOND
     1     1     2 1   
     2     2     3 1   
     3     2     4 1   
     4     4     5 1   
     5     4     7 1   
     6     4    21 1   
     7     5     6 1   
     8     5    15 1   
     9     5    22 1   
    10     7     8 1   
    11     8     9 1   
    12     8    14 1   
    13     8    23 1   
    14     9    10 1   
    15     9    13 1   
    16     9    24 1   
    17    10    11 1   
    18    10    25 1   
    19    10    26 1   
    20    11    12 1   
    21    11    27 1   
    22    11    28 1   
    23    12    29 1   
    24    13    30 1   
    25    14    15 1   
    26    14    17 1   
    27    14    31 1   
    28    15    16 1   
    29    15    32 1   
    30    16    33 1   
    31    17    18 1   
    32    17    34 1   
    33    18    19 2   
    34    18    20 1   
    35    20    35 1   
    36    20    36 1   
    37    20    37 1   
@<TRIPOS>SUBSTRUCTURE
     1 9S7         1 TEMP              0 ****  ****    0 ROOT
