@<TRIPOS>MOLECULE
9SB
   11    10     1     0     0
SMALL
No Charge or Current Charge


@<TRIPOS>ATOM
      1 C1          -0.5130     0.6480     0.0100 c3         1 9SB       0.173600
      2 C2           0.4380    -0.5560     0.0250 c3         1 9SB      -0.360400
      3 Br1         -2.4080     0.0240     0.0080 br         1 9SB      -0.371000
      4 S2           2.1530    -0.0290     0.0270 s6         1 9SB       1.320600
      5 O1S          2.2710     0.7650     1.2580 o          1 9SB      -0.692200
      6 O2S          2.9000    -1.2940     0.0420 o          1 9SB      -0.692200
      7 O3S          2.2810     0.7440    -1.2160 o          1 9SB      -0.692200
      8 H1          -0.3830     1.2750     0.9030 h1         1 9SB       0.076700
      9 H2          -0.3760     1.2590    -0.8920 h1         1 9SB       0.076700
     10 H3           0.2950    -1.1580     0.9280 h1         1 9SB       0.080700
     11 H4           0.3020    -1.1730    -0.8690 h1         1 9SB       0.080700
@<TRIPOS>BOND
     1     1     2 1   
     2     1     3 1   
     3     1     8 1   
     4     1     9 1   
     5     2     4 1   
     6     2    10 1   
     7     2    11 1   
     8     4     5 1   
     9     4     6 1   
    10     4     7 1   
@<TRIPOS>SUBSTRUCTURE
     1 9SB         1 TEMP              0 ****  ****    0 ROOT
