@<TRIPOS>MOLECULE
9SB
   11    10     1     0     0
SMALL
abcg2


@<TRIPOS>ATOM
      1 C1          -0.5130     0.6320     0.0110 c3         1 9SB       0.173600
      2 C2           0.4130    -0.5570     0.0250 c3         1 9SB      -0.360400
      3 BR1         -2.3970     0.0480     0.0060 br         1 9SB      -0.371000
      4 S2           2.1460    -0.0240     0.0270 s6         1 9SB       1.320600
      5 O1S          2.3080     0.7830     1.2520 o          1 9SB      -0.692200
      6 O2S          2.9230    -1.2760     0.0420 o          1 9SB      -0.692200
      7 O3S          2.3170     0.7600    -1.2100 o          1 9SB      -0.692200
      8 H1          -0.3900     1.2550     0.8940 h1         1 9SB       0.076700
      9 H2          -0.3820     1.2410    -0.8820 h1         1 9SB       0.076700
     10 H3           0.2640    -1.1700     0.9140 h1         1 9SB       0.080700
     11 H4           0.2710    -1.1860    -0.8550 h1         1 9SB       0.080700
@<TRIPOS>BOND
     1     1     2 1   
     2     1     3 1   
     3     1     8 1   
     4     1     9 1   
     5     2     4 1   
     6     2    10 1   
     7     2    11 1   
     8     4     5 1   
     9     4     6 1   
    10     4     7 1   
@<TRIPOS>SUBSTRUCTURE
     1 9SB         1 TEMP              0 ****  ****    0 ROOT
