@<TRIPOS>MOLECULE
9SC
   57    60     1     0     0
SMALL
No Charge or Current Charge


@<TRIPOS>ATOM
      1 N1          -4.8450    -0.9890     0.2570 nh         1 9SC      -0.780400
      2 N3           9.0960    -0.4080    -0.9360 ns         1 9SC      -0.150000
      3 C4          -6.9490    -1.3590     1.4420 ca         1 9SC      -0.151000
      4 C5          -8.3280    -1.1420     1.6000 ca         1 9SC      -0.083000
      5 C6          -9.0130    -0.3150     0.6980 ca         1 9SC      -0.116000
      6 C7          -4.2790    -2.3610     0.4360 c6         1 9SC       0.190300
      7 C8          -2.8720    -2.5090    -0.2290 c6         1 9SC       0.163800
      8 C10         -3.8810     0.0810     0.6570 c6         1 9SC       0.190300
      9 C13          1.9600    -1.1080    -0.3290 c3         1 9SC      -0.082400
     10 C15          5.5110    -0.0200    -0.0020 ca         1 9SC       0.180100
     11 C17          6.8450     1.6420     1.1890 ca         1 9SC      -0.036000
     12 C20          6.6760    -0.5040    -0.6160 ca         1 9SC      -0.198000
     13 C21          9.3700     1.8070     0.8470 c6         1 9SC      -0.015100
     14 C22         10.5530     0.8280     0.6240 c6         1 9SC      -0.161400
     15 C1          -8.3220     0.2940    -0.3620 ca         1 9SC       0.132000
     16 C12          0.5540    -0.7590     0.2100 c3         1 9SC      -0.078400
     17 C14          3.0670    -0.2090     0.2530 c3         1 9SC       0.165600
     18 C16          5.5980     1.0580     0.9060 ca         1 9SC      -0.226000
     19 C18          8.0120     1.1500     0.5770 ca         1 9SC      -0.164300
     20 C19          7.9220     0.0740    -0.3250 ca         1 9SC       0.023000
     21 C2          -6.9360     0.0810    -0.5260 ca         1 9SC       0.102000
     22 C23         10.3920    -0.0540    -0.6230 c          1 9SC       0.571000
     23 C3          -6.2390    -0.7550     0.3850 ca         1 9SC       0.286000
     24 C9          -2.4770    -0.1050    -0.0050 c6         1 9SC       0.163800
     25 N2          -1.8960    -1.4680     0.2270 n3         1 9SC      -0.724600
     26 O1           4.3160    -0.6290    -0.3210 os         1 9SC      -0.347100
     27 O2A         11.3490    -0.4010    -1.3040 o          1 9SC      -0.542000
     28 Cl2         -6.0880     0.8410    -1.8880 cl         1 9SC      -0.166000
     29 H2          -6.4290    -1.9930     2.1540 ha         1 9SC       0.121000
     30 H3          -8.8640    -1.6130     2.4230 ha         1 9SC       0.121000
     31 H4         -10.0800    -0.1450     0.8180 ha         1 9SC       0.133000
     32 H5          -4.1860    -2.5910     1.5080 h1         1 9SC       0.045450
     33 H6          -4.9530    -3.1110    -0.0040 h1         1 9SC       0.045450
     34 H7          -2.4880    -3.5150    -0.0050 h1         1 9SC       0.041950
     35 H8          -2.9980    -2.4520    -1.3200 h1         1 9SC       0.041950
     36 H9          -4.2690     1.0730     0.3810 h1         1 9SC       0.045450
     37 H10         -3.7580     0.0750     1.7500 h1         1 9SC       0.045450
     38 H11          2.1890    -2.1550    -0.0930 hc         1 9SC       0.055700
     39 H12          1.9610    -1.0150    -1.4220 hc         1 9SC       0.055700
     40 H13          6.9030     2.4810     1.8810 ha         1 9SC       0.113000
     41 H14          6.6080    -1.3340    -1.3150 ha         1 9SC       0.132000
     42 H15          9.4080     2.2060     1.8700 hc         1 9SC       0.055700
     43 H16          9.4840     2.6700     0.1760 hc         1 9SC       0.055700
     44 H17         11.5350     1.3180     0.6310 hc         1 9SC       0.075700
     45 H18         10.5240     0.1320     1.4720 hc         1 9SC       0.075700
     46 H21          0.5530    -0.8560     1.3030 hc         1 9SC       0.047700
     47 H22          0.3400     0.2900    -0.0240 hc         1 9SC       0.047700
     48 H23          2.8580     0.8390     0.0020 h1         1 9SC       0.035700
     49 H24          3.0870    -0.3130     1.3460 h1         1 9SC       0.035700
     50 H25          4.7140     1.4570     1.3940 ha         1 9SC       0.121000
     51 H26         -2.5760     0.0830    -1.0850 h1         1 9SC       0.041950
     52 H27         -1.8150     0.6750     0.3950 h1         1 9SC       0.041950
     53 C11         -0.5550    -1.6630    -0.3760 c3         1 9SC       0.172800
     54 Cl1         -9.2230     1.3230    -1.4780 cl         1 9SC      -0.176000
     55 H1           8.9730    -1.0250    -1.7280 hn         1 9SC       0.159000
     56 H19         -0.6050    -1.5010    -1.4610 h1         1 9SC       0.033200
     57 H20         -0.2450    -2.7060    -0.2230 h1         1 9SC       0.033200
@<TRIPOS>BOND
     1     1     6 1   
     2     1     8 1   
     3     1    23 1   
     4     2    20 1   
     5     2    22 1   
     6     2    55 1   
     7     3     4 ar  
     8     3    23 ar  
     9     3    29 1   
    10     4     5 ar  
    11     4    30 1   
    12     5    15 ar  
    13     5    31 1   
    14     6     7 1   
    15     6    32 1   
    16     6    33 1   
    17     7    25 1   
    18     7    34 1   
    19     7    35 1   
    20     8    24 1   
    21     8    36 1   
    22     8    37 1   
    23     9    16 1   
    24     9    17 1   
    25     9    38 1   
    26     9    39 1   
    27    10    12 ar  
    28    10    18 ar  
    29    10    26 1   
    30    11    18 ar  
    31    11    19 ar  
    32    11    40 1   
    33    12    20 ar  
    34    12    41 1   
    35    13    14 1   
    36    13    19 1   
    37    13    42 1   
    38    13    43 1   
    39    14    22 1   
    40    14    44 1   
    41    14    45 1   
    42    15    21 ar  
    43    15    54 1   
    44    16    46 1   
    45    16    47 1   
    46    16    53 1   
    47    17    26 1   
    48    17    48 1   
    49    17    49 1   
    50    18    50 1   
    51    19    20 ar  
    52    21    23 ar  
    53    21    28 1   
    54    22    27 2   
    55    24    25 1   
    56    24    51 1   
    57    24    52 1   
    58    25    53 1   
    59    53    56 1   
    60    53    57 1   
@<TRIPOS>SUBSTRUCTURE
     1 9SC         1 TEMP              0 ****  ****    0 ROOT
