@<TRIPOS>MOLECULE
9SC
   57    60     1     0     0
SMALL
abcg2


@<TRIPOS>ATOM
      1 N1          -4.6620    -0.9690     0.0860 nh         1 9SC      -0.780400
      2 N3           8.9510    -0.3450    -0.8120 ns         1 9SC      -0.150000
      3 C4          -6.6480    -1.3870     1.4570 ca         1 9SC      -0.151000
      4 C5          -7.9790    -1.1360     1.7460 ca         1 9SC      -0.083000
      5 C6          -8.6970    -0.2030     1.0180 ca         1 9SC      -0.116000
      6 C7          -4.1240    -2.2730     0.4230 c6         1 9SC       0.190300
      7 C8          -2.8080    -2.4790    -0.3040 c6         1 9SC       0.163800
      8 C10         -3.7160     0.0840     0.4410 c6         1 9SC       0.190300
      9 C13          1.9270    -1.2400    -0.4530 c3         1 9SC      -0.082400
     10 C15          5.3650    -0.0950    -0.0070 ca         1 9SC       0.180100
     11 C17          6.5750     1.6300     1.1430 ca         1 9SC      -0.036000
     12 C20          6.5660    -0.5470    -0.5550 ca         1 9SC      -0.198000
     13 C21          9.0870     1.8960     0.8260 c6         1 9SC      -0.015100
     14 C22         10.2170     0.8750     0.8520 c6         1 9SC      -0.161400
     15 C1          -8.0690     0.4590    -0.0260 ca         1 9SC       0.132000
     16 C12          0.5490    -0.8330     0.0600 c3         1 9SC      -0.078400
     17 C14          3.0040    -0.3510     0.1330 c3         1 9SC       0.165600
     18 C16          5.3690     0.9980     0.8570 ca         1 9SC      -0.226000
     19 C18          7.7740     1.2110     0.5970 ca         1 9SC      -0.164300
     20 C19          7.7530     0.1000    -0.2520 ca         1 9SC       0.023000
     21 C2          -6.7410     0.1950    -0.3410 ca         1 9SC       0.102000
     22 C23         10.1920    -0.0380    -0.3480 c          1 9SC       0.571000
     23 C3          -5.9960    -0.7260     0.4150 ca         1 9SC       0.286000
     24 C9          -2.3990    -0.1410    -0.2730 c6         1 9SC       0.163800
     25 N2          -1.8560    -1.4460     0.0520 n3         1 9SC      -0.724600
     26 O1           4.2620    -0.7800    -0.3620 os         1 9SC      -0.347100
     27 O2A         11.1940    -0.5050    -0.8590 o          1 9SC      -0.542000
     28 CL2         -6.0210     0.9550    -1.7080 cl         1 9SC      -0.166000
     29 H2          -6.1030    -2.1030     2.0560 ha         1 9SC       0.121000
     30 H3          -8.4600    -1.6610     2.5610 ha         1 9SC       0.121000
     31 H4          -9.7330     0.0050     1.2460 ha         1 9SC       0.133000
     32 H5          -3.9560    -2.3890     1.5050 h1         1 9SC       0.045450
     33 H6          -4.8290    -3.0460     0.1120 h1         1 9SC       0.045450
     34 H7          -2.4030    -3.4520    -0.0180 h1         1 9SC       0.041950
     35 H8          -3.0000    -2.5090    -1.3900 h1         1 9SC       0.041950
     36 H9          -4.1110     1.0590     0.1590 h1         1 9SC       0.045450
     37 H10         -3.5470     0.1000     1.5270 h1         1 9SC       0.045450
     38 H11          2.1250    -2.2830    -0.1910 hc         1 9SC       0.055700
     39 H12          1.9530    -1.1710    -1.5440 hc         1 9SC       0.055700
     40 H13          6.5710     2.4830     1.8100 ha         1 9SC       0.113000
     41 H14          6.5610    -1.4070    -1.2150 ha         1 9SC       0.132000
     42 H15          9.0730     2.4610     1.7590 hc         1 9SC       0.055700
     43 H16          9.2710     2.6210     0.0260 hc         1 9SC       0.055700
     44 H17         11.1920     1.3570     0.9010 hc         1 9SC       0.075700
     45 H18         10.1260     0.2420     1.7420 hc         1 9SC       0.075700
     46 H21          0.5120    -0.9370     1.1480 hc         1 9SC       0.047700
     47 H22          0.3890     0.2260    -0.1590 hc         1 9SC       0.047700
     48 H23          2.8230     0.6930    -0.1460 h1         1 9SC       0.035700
     49 H24          2.9870    -0.4060     1.2280 h1         1 9SC       0.035700
     50 H25          4.4610     1.3690     1.3110 ha         1 9SC       0.121000
     51 H26         -2.5560    -0.0240    -1.3600 h1         1 9SC       0.041950
     52 H27         -1.7030     0.6390     0.0390 h1         1 9SC       0.041950
     53 C11         -0.5570    -1.6830    -0.5500 c3         1 9SC       0.172800
     54 CL1         -8.9740     1.5950    -0.9560 cl         1 9SC      -0.176000
     55 H1           8.9000    -1.0260    -1.5580 hn         1 9SC       0.159000
     56 H19         -0.5810    -1.5310    -1.6440 h1         1 9SC       0.033200
     57 H20         -0.3090    -2.7370    -0.3930 h1         1 9SC       0.033200
@<TRIPOS>BOND
     1     1     6 1   
     2     1     8 1   
     3     1    23 1   
     4     2    20 1   
     5     2    22 1   
     6     2    55 1   
     7     3     4 ar  
     8     3    23 ar  
     9     3    29 1   
    10     4     5 ar  
    11     4    30 1   
    12     5    15 ar  
    13     5    31 1   
    14     6     7 1   
    15     6    32 1   
    16     6    33 1   
    17     7    25 1   
    18     7    34 1   
    19     7    35 1   
    20     8    24 1   
    21     8    36 1   
    22     8    37 1   
    23     9    16 1   
    24     9    17 1   
    25     9    38 1   
    26     9    39 1   
    27    10    12 ar  
    28    10    18 ar  
    29    10    26 1   
    30    11    18 ar  
    31    11    19 ar  
    32    11    40 1   
    33    12    20 ar  
    34    12    41 1   
    35    13    14 1   
    36    13    19 1   
    37    13    42 1   
    38    13    43 1   
    39    14    22 1   
    40    14    44 1   
    41    14    45 1   
    42    15    21 ar  
    43    15    54 1   
    44    16    46 1   
    45    16    47 1   
    46    16    53 1   
    47    17    26 1   
    48    17    48 1   
    49    17    49 1   
    50    18    50 1   
    51    19    20 ar  
    52    21    23 ar  
    53    21    28 1   
    54    22    27 2   
    55    24    25 1   
    56    24    51 1   
    57    24    52 1   
    58    25    53 1   
    59    53    56 1   
    60    53    57 1   
@<TRIPOS>SUBSTRUCTURE
     1 9SC         1 TEMP              0 ****  ****    0 ROOT
