@<TRIPOS>MOLECULE
9SD
   36    36     1     0     0
SMALL
No Charge or Current Charge


@<TRIPOS>ATOM
      1 O1B         23.7500    21.0940    64.4660 o          1 9SD      -0.564000
      2 C1          23.1830    20.0150    64.3350 c          1 9SD       0.701000
      3 O1A         22.0010    19.8350    64.6040 o          1 9SD      -0.564000
      4 C2          23.9630    18.8910    63.8120 c2         1 9SD       0.202900
      5 C3          23.3230    17.5030    63.6880 c6         1 9SD       0.128500
      6 F1          23.4670    16.7900    64.9010 f          1 9SD      -0.211000
      7 C4          23.9500    16.6520    62.5430 c6         1 9SD       0.131300
      8 O6          25.3150    19.0020    63.5340 os         1 9SD      -0.208100
      9 C6          25.9120    18.2080    62.4820 c6         1 9SD       0.096300
     10 C7          27.4600    18.4630    62.5030 c3         1 9SD       0.184300
     11 C8          27.8400    19.9610    62.3730 c3         1 9SD      -0.072400
     12 C9          29.3440    20.2210    62.1400 c3         1 9SD       0.161600
     13 O9          29.7400    19.7160    60.8570 oh         1 9SD      -0.685000
     14 O7          28.0690    17.9290    63.6920 oh         1 9SD      -0.662000
     15 C5          25.5000    16.7120    62.6320 c6         1 9SD       0.076700
     16 N5          26.1340    15.8280    61.6270 ns         1 9SD      -0.497900
     17 C10         27.3490    15.2000    61.7710 c          1 9SD       0.610100
     18 O10         28.0620    15.3880    62.7470 o          1 9SD      -0.618100
     19 C11         27.7410    14.2740    60.6320 c3         1 9SD      -0.171100
     20 O4          23.4900    15.2850    62.5730 oh         1 9SD      -0.625000
     21 H3          22.2440    17.6030    63.5030 h1         1 9SD       0.118700
     22 H4          23.6520    17.1080    61.5860 h1         1 9SD       0.053700
     23 H5          25.5330    18.5810    61.5190 h1         1 9SD       0.083700
     24 H6          27.8720    17.9550    61.6200 h1         1 9SD       0.065700
     25 H7          27.5330    20.4910    63.2820 hc         1 9SD       0.068700
     26 H8          27.2750    20.4080    61.5460 hc         1 9SD       0.068700
     27 H9          29.9300    19.7500    62.9410 h1         1 9SD       0.037700
     28 H10         29.5260    21.3030    62.1910 h1         1 9SD       0.037700
     29 H11         30.6970    19.9200    60.7510 ho         1 9SD       0.447000
     30 H12         28.1770    16.9560    63.5170 ho         1 9SD       0.482000
     31 H13         25.7980    16.3630    63.6330 h1         1 9SD       0.127700
     32 H14         25.5960    15.5750    60.8050 hn         1 9SD       0.324500
     33 H15         26.9500    13.5280    60.4920 hc         1 9SD       0.070700
     34 H16         27.7050    14.8320    59.6900 hc         1 9SD       0.070700
     35 H17         28.7180    13.8050    60.7890 hc         1 9SD       0.070700
     36 H18         22.5250    15.2880    62.3850 ho         1 9SD       0.462000
@<TRIPOS>BOND
     1     1     2 1   
     2     2     3 1   
     3     2     4 2   
     4     4     5 1   
     5     4     8 1   
     6     5     6 1   
     7     5     7 1   
     8     5    21 1   
     9     7    15 1   
    10     7    20 1   
    11     7    22 1   
    12     8     9 1   
    13     9    10 1   
    14     9    15 1   
    15     9    23 1   
    16    10    11 1   
    17    10    14 1   
    18    10    24 1   
    19    11    12 1   
    20    11    25 1   
    21    11    26 1   
    22    12    13 1   
    23    12    27 1   
    24    12    28 1   
    25    13    29 1   
    26    14    30 1   
    27    15    16 1   
    28    15    31 1   
    29    16    17 1   
    30    16    32 1   
    31    17    18 2   
    32    17    19 1   
    33    19    33 1   
    34    19    34 1   
    35    19    35 1   
    36    20    36 1   
@<TRIPOS>SUBSTRUCTURE
     1 9SD         1 TEMP              0 ****  ****    0 ROOT
