@<TRIPOS>MOLECULE
9SD
   36    36     1     0     0
SMALL
abcg2


@<TRIPOS>ATOM
      1 O1B         23.4850    20.5780    65.4450 o          1 9SD      -0.564000
      2 C1          23.3410    20.0500    64.3560 c          1 9SD       0.701000
      3 O1A         22.5930    20.2610    63.3650 o          1 9SD      -0.564000
      4 C2          24.0980    18.8850    63.7850 c2         1 9SD       0.202900
      5 C3          23.4610    17.5130    63.7340 c6         1 9SD       0.128500
      6 F1          23.8260    16.9470    64.9650 f          1 9SD      -0.211000
      7 C4          23.9860    16.6500    62.5920 c6         1 9SD       0.131300
      8 O6          25.2380    19.1160    63.2850 os         1 9SD      -0.208100
      9 C6          25.9300    18.1990    62.3280 c6         1 9SD       0.096300
     10 C7          27.4260    18.4610    62.4770 c3         1 9SD       0.184300
     11 C8          27.7670    19.9430    62.3870 c3         1 9SD      -0.072400
     12 C9          29.2520    20.1920    62.2120 c3         1 9SD       0.161600
     13 O9          29.6560    19.6730    60.9390 oh         1 9SD      -0.685000
     14 O7          27.9240    17.9400    63.6990 oh         1 9SD      -0.662000
     15 C5          25.5090    16.7470    62.5700 c6         1 9SD       0.076700
     16 N5          26.0760    15.8960    61.5510 ns         1 9SD      -0.497900
     17 C10         27.2210    15.2030    61.7240 c          1 9SD       0.610100
     18 O10         27.9090    15.3110    62.7450 o          1 9SD      -0.618100
     19 C11         27.6250    14.2900    60.5980 c3         1 9SD      -0.171100
     20 O4          23.6160    15.3020    62.7630 oh         1 9SD      -0.625000
     21 H3          22.3770    17.5990    63.7130 h1         1 9SD       0.118700
     22 H4          23.5810    17.0600    61.6590 h1         1 9SD       0.053700
     23 H5          25.5870    18.5430    61.3510 h1         1 9SD       0.083700
     24 H6          27.8920    17.9470    61.6300 h1         1 9SD       0.065700
     25 H7          27.4310    20.4450    63.2960 hc         1 9SD       0.068700
     26 H8          27.2260    20.3880    61.5470 hc         1 9SD       0.068700
     27 H9          29.8110    19.7040    63.0150 h1         1 9SD       0.037700
     28 H10         29.4480    21.2680    62.2640 h1         1 9SD       0.037700
     29 H11         30.6110    19.7830    60.8560 ho         1 9SD       0.447000
     30 H12         28.0260    16.9760    63.5770 ho         1 9SD       0.482000
     31 H13         25.8960    16.4170    63.5340 h1         1 9SD       0.127700
     32 H14         25.5670    15.7830    60.6880 hn         1 9SD       0.324500
     33 H15         27.7330    13.2800    60.9940 hc         1 9SD       0.070700
     34 H16         26.9090    14.2830    59.7780 hc         1 9SD       0.070700
     35 H17         28.5990    14.6090    60.2260 hc         1 9SD       0.070700
     36 H18         22.6890    15.1920    62.5150 ho         1 9SD       0.462000
@<TRIPOS>BOND
     1     1     2 1   
     2     2     3 1   
     3     2     4 2   
     4     4     5 1   
     5     4     8 1   
     6     5     6 1   
     7     5     7 1   
     8     5    21 1   
     9     7    15 1   
    10     7    20 1   
    11     7    22 1   
    12     8     9 1   
    13     9    10 1   
    14     9    15 1   
    15     9    23 1   
    16    10    11 1   
    17    10    14 1   
    18    10    24 1   
    19    11    12 1   
    20    11    25 1   
    21    11    26 1   
    22    12    13 1   
    23    12    27 1   
    24    12    28 1   
    25    13    29 1   
    26    14    30 1   
    27    15    16 1   
    28    15    31 1   
    29    16    17 1   
    30    16    32 1   
    31    17    18 2   
    32    17    19 1   
    33    19    33 1   
    34    19    34 1   
    35    19    35 1   
    36    20    36 1   
@<TRIPOS>SUBSTRUCTURE
     1 9SD         1 TEMP              0 ****  ****    0 ROOT
