@<TRIPOS>MOLECULE
9SE
   19    19     1     0     0
SMALL
No Charge or Current Charge


@<TRIPOS>ATOM
      1 C2          -0.8880     0.5360     0.4380 c5         1 9SE       0.358200
      2 C5           1.1290    -1.0870    -0.4900 c5         1 9SE       0.152600
      3 O           -1.8380     2.1240    -1.2140 o          1 9SE      -0.726500
      4 C2A         -2.0780     1.4580    -0.2070 c          1 9SE       0.732000
      5 OXT         -3.1850     1.5210     0.3240 o          1 9SE      -0.726500
      6 N3           0.4760     1.1310     0.2410 n7         1 9SE      -0.834400
      7 C2B         -1.1840     0.2660     1.9450 c3         1 9SE      -0.047100
      8 SE1         -0.7370    -1.1220    -0.4670 ss         1 9SE      -0.851000
      9 C4           1.5280     0.0660     0.4540 c5         1 9SE       0.038500
     10 C4A          3.0180     0.4610     0.0980 c          1 9SE       0.723000
     11 O41          3.9140     0.1660     0.8800 o          1 9SE      -0.740500
     12 O42          3.2450     1.1100    -0.9170 o          1 9SE      -0.740500
     13 H1           1.5490    -2.0490    -0.1640 h1         1 9SE       0.042200
     14 H2           1.4680    -0.8990    -1.5190 h1         1 9SE       0.042200
     15 H4           0.5130     1.4370    -0.7400 hn         1 9SE       0.481000
     16 H6          -0.4420    -0.3900     2.4120 hc         1 9SE       0.020033
     17 H7          -1.2040     1.2030     2.5140 hc         1 9SE       0.020033
     18 H8          -2.1580    -0.2210     2.0750 hc         1 9SE       0.020033
     19 H9           1.5230    -0.2740     1.4980 h1         1 9SE       0.038700
@<TRIPOS>BOND
     1     1     4 1   
     2     1     6 1   
     3     1     7 1   
     4     1     8 1   
     5     2     8 1   
     6     2     9 1   
     7     2    13 1   
     8     2    14 1   
     9     3     4 1   
    10     4     5 1   
    11     6     9 1   
    12     6    15 1   
    13     7    16 1   
    14     7    17 1   
    15     7    18 1   
    16     9    10 1   
    17     9    19 1   
    18    10    11 1   
    19    10    12 1   
@<TRIPOS>SUBSTRUCTURE
     1 9SE         1 TEMP              0 ****  ****    0 ROOT
