@<TRIPOS>MOLECULE
9SE
   19    19     1     0     0
SMALL
bcc


@<TRIPOS>ATOM
      1 C2          -0.8340     0.5520     0.5280 c5         1 9SE       0.310300
      2 C5           1.1110    -1.1530    -0.4880 c5         1 9SE       0.104700
      3 O           -1.4160     2.1960    -1.0990 o          1 9SE      -0.831800
      4 C2A         -1.8680     1.3890    -0.2650 c          1 9SE       0.942600
      5 OXT         -3.0630     1.1630    -0.0090 o          1 9SE      -0.831800
      6 N3           0.4850     1.0440     0.3780 n7         1 9SE      -0.779200
      7 C2B         -1.2240     0.3660     1.9830 c3         1 9SE      -0.047100
      8 SE1         -0.8340    -1.3040    -0.3690 ss         1 9SE      -0.755200
      9 C4           1.4980     0.0220     0.4440 c5         1 9SE       0.038500
     10 C4A          2.8840     0.5540     0.0170 c          1 9SE       0.933600
     11 O41          3.8680    -0.0450     0.4860 o          1 9SE      -0.845800
     12 O42          2.8930     1.4980    -0.7960 o          1 9SE      -0.845800
     13 H1           1.5910    -2.0810    -0.1780 h1         1 9SE       0.042200
     14 H2           1.3990    -0.9420    -1.5200 h1         1 9SE       0.042200
     15 H4           0.5640     1.5550    -0.4940 hn         1 9SE       0.425800
     16 H6          -0.4960    -0.2420     2.5220 hc         1 9SE       0.020033
     17 H7          -1.2740     1.3410     2.4760 hc         1 9SE       0.020033
     18 H8          -2.1970    -0.1090     2.0810 hc         1 9SE       0.020033
     19 H9           1.5620    -0.3660     1.4640 h1         1 9SE       0.038700
@<TRIPOS>BOND
     1     1     4 1   
     2     1     6 1   
     3     1     7 1   
     4     1     8 1   
     5     2     8 1   
     6     2     9 1   
     7     2    13 1   
     8     2    14 1   
     9     3     4 1   
    10     4     5 1   
    11     6     9 1   
    12     6    15 1   
    13     7    16 1   
    14     7    17 1   
    15     7    18 1   
    16     9    10 1   
    17     9    19 1   
    18    10    11 1   
    19    10    12 1   
@<TRIPOS>SUBSTRUCTURE
     1 9SE         1 TEMP              0 ****  ****    0 ROOT
