@<TRIPOS>MOLECULE
9SF
   41    43     1     0     0
SMALL
bcc


@<TRIPOS>ATOM
      1 N1          -3.3990     1.8350     0.1490 nc         1 9SF      -0.620100
      2 C2          -2.1840     1.9540    -0.2330 cd         1 9SF       0.508800
      3 C5          -3.6990    -1.8480    -0.0030 ca         1 9SF      -0.059000
      4 C6          -5.0100    -2.0020     0.3920 ca         1 9SF      -0.152000
      5 C7          -5.7810    -0.8780     0.7070 ca         1 9SF      -0.094000
      6 C8          -5.2440     0.3880     0.6250 ca         1 9SF      -0.121000
      7 C10         -3.1430    -0.5680    -0.0920 ca         1 9SF      -0.195600
      8 C11          3.2430     0.2650     0.3870 c6         1 9SF       0.177500
      9 C21          0.9320     1.1850     0.2820 c          1 9SF       0.573100
     10 C3           2.3860     1.4660    -0.0020 c3         1 9SF      -0.170400
     11 C39          4.7330     0.5030     0.1340 c6         1 9SF       0.115100
     12 C4          -1.7540    -0.3960    -0.5030 c          1 9SF       0.722100
     13 C14          5.5260    -0.7510     0.4880 c6         1 9SF      -0.113400
     14 C12          4.9860    -1.9690    -0.2560 c6         1 9SF      -0.112400
     15 C13          3.4880    -2.1120    -0.0090 c6         1 9SF       0.152800
     16 C9          -3.9130     0.5610     0.2230 ca         1 9SF       0.181400
     17 N2           2.7400    -0.9040    -0.3140 n7         1 9SF      -0.791200
     18 N3          -1.3550     0.9300    -0.5830 n          1 9SF      -0.390300
     19 O11         -0.9880    -1.3010    -0.7720 o          1 9SF      -0.599500
     20 O4           0.5070     0.9700     1.3900 o          1 9SF      -0.495100
     21 O7           5.1340     1.6210     0.8960 oh         1 9SF      -0.592800
     22 H1          -1.7460     2.9430    -0.3080 h5         1 9SF       0.042800
     23 H2          -3.0960    -2.7120    -0.2470 ha         1 9SF       0.153000
     24 H3          -5.4420    -2.9910     0.4610 ha         1 9SF       0.136000
     25 H4          -6.8110    -1.0050     1.0160 ha         1 9SF       0.134000
     26 H5          -5.8340     1.2630     0.8660 ha         1 9SF       0.150000
     27 H6           0.0730     2.2170    -1.3750 h1         1 9SF       0.082200
     28 H7           0.3840     0.5230    -1.6730 h1         1 9SF       0.082200
     29 H8           3.1110     0.0830     1.4620 h1         1 9SF       0.091700
     30 H9           2.6850     2.3500     0.5640 hc         1 9SF       0.067200
     31 H10          2.5300     1.7000    -1.0620 hc         1 9SF       0.067200
     32 H11          4.8600     0.7020    -0.9440 h1         1 9SF       0.023700
     33 H12          6.5840    -0.6000     0.2570 hc         1 9SF       0.049700
     34 H13          5.4570    -0.9180     1.5690 hc         1 9SF       0.049700
     35 H14          5.1660    -1.8570    -1.3300 hc         1 9SF       0.045700
     36 H15          5.5130    -2.8720     0.0600 hc         1 9SF       0.045700
     37 H16          3.0740    -2.9320    -0.6000 h1         1 9SF       0.060700
     38 H17          3.3150    -2.3640     1.0420 h1         1 9SF       0.060700
     39 H18          2.7720    -0.7380    -1.3150 hn         1 9SF       0.346800
     40 H20          6.0720     1.7710     0.7420 ho         1 9SF       0.406000
     41 C1           0.0170     1.2240    -0.9220 c3         1 9SF      -0.019000
@<TRIPOS>BOND
     1     1     2 2   
     2     1    16 1   
     3     2    18 1   
     4     2    22 1   
     5     3     4 ar  
     6     3     7 ar  
     7     3    23 1   
     8     4     5 ar  
     9     4    24 1   
    10     5     6 ar  
    11     5    25 1   
    12     6    16 ar  
    13     6    26 1   
    14     7    12 1   
    15     7    16 ar  
    16     8    10 1   
    17     8    11 1   
    18     8    17 1   
    19     8    29 1   
    20     9    10 1   
    21     9    20 2   
    22     9    41 1   
    23    10    30 1   
    24    10    31 1   
    25    11    13 1   
    26    11    21 1   
    27    11    32 1   
    28    12    18 1   
    29    12    19 2   
    30    13    14 1   
    31    13    33 1   
    32    13    34 1   
    33    14    15 1   
    34    14    35 1   
    35    14    36 1   
    36    15    17 1   
    37    15    37 1   
    38    15    38 1   
    39    17    39 1   
    40    18    41 1   
    41    21    40 1   
    42    27    41 1   
    43    28    41 1   
@<TRIPOS>SUBSTRUCTURE
     1 9SF         1 TEMP              0 ****  ****    0 ROOT
