@<TRIPOS>MOLECULE
9SF
   41    43     1     0     0
SMALL
No Charge or Current Charge


@<TRIPOS>ATOM
      1 N1          -3.5510     1.8430    -0.2760 nc         1 9SF      -0.620100
      2 C2          -2.2380     1.8010    -0.5310 cd         1 9SF       0.508800
      3 C5          -4.0380    -1.8150     0.4250 ca         1 9SF      -0.041000
      4 C6          -5.4140    -1.8270     0.7000 ca         1 9SF      -0.134000
      5 C7          -6.1450    -0.6320     0.6470 ca         1 9SF      -0.076000
      6 C8          -5.4940     0.5690     0.3180 ca         1 9SF      -0.103000
      7 C10         -3.3910    -0.6030     0.0950 ca         1 9SF      -0.195600
      8 C11          3.3230     0.2070     0.3700 c6         1 9SF       0.177500
      9 C21          0.9270     1.0760     0.4140 c          1 9SF       0.573100
     10 C3           2.3920     1.4250     0.1420 c3         1 9SF      -0.170400
     11 C39          4.8460     0.5880     0.3590 c6         1 9SF       0.138300
     12 C4          -1.9380    -0.5720    -0.1980 c          1 9SF       0.579600
     13 C14          5.7170    -0.6870     0.4940 c6         1 9SF      -0.113400
     14 C12          5.3180    -1.7440    -0.5670 c6         1 9SF      -0.112400
     15 C13          3.8030    -2.0510    -0.5090 c6         1 9SF       0.152800
     16 C9          -4.1140     0.6000     0.0390 ca         1 9SF       0.181400
     17 N2           3.0130    -0.8070    -0.6710 n7         1 9SF      -0.846400
     18 N3          -1.4210     0.6810    -0.5200 n          1 9SF      -0.323300
     19 O11         -1.2430    -1.5800    -0.1590 o          1 9SF      -0.524000
     20 O4           0.4860     1.0380     1.5580 o          1 9SF      -0.495100
     21 O7           5.1710     1.4950     1.4220 oh         1 9SF      -0.655000
     22 H1          -1.7420     2.7320    -0.7780 h5         1 9SF       0.042800
     23 H2          -3.4780    -2.7480     0.4690 ha         1 9SF       0.135000
     24 H3          -5.9110    -2.7610     0.9540 ha         1 9SF       0.118000
     25 H4          -7.2120    -0.6350     0.8590 ha         1 9SF       0.116000
     26 H5          -6.0690     1.4910     0.2800 ha         1 9SF       0.132000
     27 H6           0.1860     1.6560    -1.5150 h1         1 9SF       0.082200
     28 H7           0.4080    -0.0820    -1.3190 h1         1 9SF       0.082200
     29 H8           3.0910    -0.2130     1.3630 h1         1 9SF       0.091700
     30 H9           2.6750     2.2320     0.8280 hc         1 9SF       0.067200
     31 H10          2.5060     1.7670    -0.8930 hc         1 9SF       0.067200
     32 H11          5.0750     1.0600    -0.6080 h1         1 9SF       0.023700
     33 H12          6.7810    -0.4350     0.3850 hc         1 9SF       0.049700
     34 H13          5.5960    -1.1160     1.4990 hc         1 9SF       0.049700
     35 H14          5.5840    -1.3830    -1.5700 hc         1 9SF       0.045700
     36 H15          5.8890    -2.6690    -0.4070 hc         1 9SF       0.045700
     37 H16          3.5390    -2.7650    -1.3040 h1         1 9SF       0.060700
     38 H17          3.5570    -2.5240     0.4540 h1         1 9SF       0.060700
     39 H18          3.2420    -0.4090    -1.5900 hn         1 9SF       0.402000
     40 H20          6.1240     1.7140     1.3250 ho         1 9SF       0.445000
     41 C1           0.0360     0.8200    -0.8190 c3         1 9SF      -0.019000
@<TRIPOS>BOND
     1     1     2 2   
     2     1    16 1   
     3     2    18 1   
     4     2    22 1   
     5     3     4 ar  
     6     3     7 ar  
     7     3    23 1   
     8     4     5 ar  
     9     4    24 1   
    10     5     6 ar  
    11     5    25 1   
    12     6    16 ar  
    13     6    26 1   
    14     7    12 1   
    15     7    16 ar  
    16     8    10 1   
    17     8    11 1   
    18     8    17 1   
    19     8    29 1   
    20     9    10 1   
    21     9    20 2   
    22     9    41 1   
    23    10    30 1   
    24    10    31 1   
    25    11    13 1   
    26    11    21 1   
    27    11    32 1   
    28    12    18 1   
    29    12    19 2   
    30    13    14 1   
    31    13    33 1   
    32    13    34 1   
    33    14    15 1   
    34    14    35 1   
    35    14    36 1   
    36    15    17 1   
    37    15    37 1   
    38    15    38 1   
    39    17    39 1   
    40    18    41 1   
    41    21    40 1   
    42    27    41 1   
    43    28    41 1   
@<TRIPOS>SUBSTRUCTURE
     1 9SF         1 TEMP              0 ****  ****    0 ROOT
