@<TRIPOS>MOLECULE
9SG
   37    37     1     0     0
SMALL
abcg2


@<TRIPOS>ATOM
      1 OAB         -1.2420     3.6930    -0.7390 o          1 9SG      -0.605100
      2 CAN         -1.2250     3.3360     0.4290 c          1 9SG       0.598100
      3 CAA         -1.2680     4.3100     1.5820 c3         1 9SG      -0.184100
      4 NAL         -1.1700     2.0410     0.8060 ns         1 9SG      -0.504900
      5 CAT         -1.1330     0.9170    -0.0980 c6         1 9SG       0.075700
      6 CAR         -2.3430     0.0090     0.1300 c6         1 9SG      -0.115400
      7 CAS         -2.2260    -1.2700    -0.6670 c6         1 9SG       0.151300
      8 FAI         -2.2590    -0.9550    -2.0290 f          1 9SG      -0.286000
      9 CAU          0.1690     0.1310     0.1050 c6         1 9SG       0.154300
     10 OAM          0.1480    -1.0730    -0.6440 os         1 9SG      -0.479000
     11 CAV         -0.8950    -1.9400    -0.3690 c6         1 9SG       0.256000
     12 FAJ         -0.7150    -2.9770    -1.2650 f          1 9SG      -0.251000
     13 CAO         -0.8280    -2.5770     1.0550 c          1 9SG       0.701000
     14 OAE          0.2960    -2.6520     1.5650 o          1 9SG      -0.690000
     15 OAC         -1.9160    -2.9770     1.5050 o          1 9SG      -0.690000
     16 CAQ          1.3990     0.8980    -0.3780 c3         1 9SG       0.154300
     17 OAG          1.3920     1.0360    -1.7780 oh         1 9SG      -0.724000
     18 CAP          2.7010     0.2690     0.1520 c3         1 9SG       0.133300
     19 OAF          2.7320     0.3380     1.5600 oh         1 9SG      -0.619000
     20 CAK          3.9250     0.9180    -0.4750 c3         1 9SG       0.126600
     21 OAD          5.0790     0.3100     0.0570 oh         1 9SG      -0.706000
     22 H1          -1.2420     5.3330     1.2140 hc         1 9SG       0.053367
     23 H2          -2.1790     4.1730     2.1660 hc         1 9SG       0.053367
     24 H3          -0.4240     4.1570     2.2550 hc         1 9SG       0.053367
     25 H4          -1.1920     1.8380     1.7940 hn         1 9SG       0.308500
     26 H5          -1.1590     1.3130    -1.1130 h1         1 9SG       0.102700
     27 H6          -2.4210    -0.2520     1.1880 hc         1 9SG       0.058200
     28 H7          -3.2650     0.5320    -0.1310 hc         1 9SG       0.058200
     29 H8          -3.0570    -1.9450    -0.4660 h1         1 9SG       0.090700
     30 H9           0.2830    -0.0910     1.1740 h1         1 9SG       0.083700
     31 H11          1.3400     1.9160     0.0220 h1         1 9SG       0.054700
     32 H12          1.2900     0.1590    -2.1660 ho         1 9SG       0.526000
     33 H13          2.7110    -0.8000    -0.0880 h1         1 9SG       0.119700
     34 H14          2.7990     1.2640     1.8210 ho         1 9SG       0.415000
     35 H15          3.8750     0.8030    -1.5620 h1         1 9SG       0.020200
     36 H16          3.9070     2.0010    -0.2690 h1         1 9SG       0.020200
     37 H17          5.8420     0.6810    -0.3950 ho         1 9SG       0.486000
@<TRIPOS>BOND
     1     1     2 2   
     2     2     3 1   
     3     2     4 1   
     4     3    22 1   
     5     3    23 1   
     6     3    24 1   
     7     4     5 1   
     8     4    25 1   
     9     5     6 1   
    10     5     9 1   
    11     5    26 1   
    12     6     7 1   
    13     6    27 1   
    14     6    28 1   
    15     7     8 1   
    16     7    11 1   
    17     7    29 1   
    18     9    10 1   
    19     9    16 1   
    20     9    30 1   
    21    10    11 1   
    22    11    12 1   
    23    11    13 1   
    24    13    14 1   
    25    13    15 1   
    26    16    17 1   
    27    16    18 1   
    28    16    31 1   
    29    17    32 1   
    30    18    19 1   
    31    18    20 1   
    32    18    33 1   
    33    19    34 1   
    34    20    21 1   
    35    20    35 1   
    36    20    36 1   
    37    21    37 1   
@<TRIPOS>SUBSTRUCTURE
     1 9SG         1 TEMP              0 ****  ****    0 ROOT
