@<TRIPOS>MOLECULE
9SG
   37    37     1     0     0
SMALL
No Charge or Current Charge


@<TRIPOS>ATOM
      1 OAB         -0.7510     3.7030    -0.7600 o          1 9SG      -0.605100
      2 CAN         -1.0160     3.3940     0.3920 c          1 9SG       0.598100
      3 CAA         -1.1040     4.4170     1.5160 c3         1 9SG      -0.184100
      4 NAL         -1.2650     2.0950     0.7750 ns         1 9SG      -0.504900
      5 CAT         -1.2190     0.9060    -0.0990 c6         1 9SG       0.075700
      6 CAR         -2.4320    -0.0040     0.2330 c6         1 9SG      -0.115400
      7 CAS         -2.3970    -1.3050    -0.6050 c6         1 9SG       0.151300
      8 FAI         -2.5430    -0.9170    -1.9610 f          1 9SG      -0.286000
      9 CAU          0.1180     0.1040     0.0640 c6         1 9SG       0.154300
     10 OAM          0.0730    -1.1410    -0.7050 os         1 9SG      -0.479000
     11 CAV         -1.0410    -2.0500    -0.4110 c6         1 9SG       0.256000
     12 FAJ         -0.9730    -3.0480    -1.4200 f          1 9SG      -0.251000
     13 CAO         -1.0110    -2.7700     1.0210 c          1 9SG       0.701000
     14 OAE         -0.2280    -2.3450     1.8640 o          1 9SG      -0.690000
     15 OAC         -1.3110    -3.9610     1.0480 o          1 9SG      -0.690000
     16 CAQ          1.3700     0.8810    -0.4710 c3         1 9SG       0.154300
     17 OAG          1.4220     0.7400    -1.9040 oh         1 9SG      -0.724000
     18 CAP          2.7150     0.3900     0.1530 c3         1 9SG       0.133300
     19 OAF          2.7090     0.5910     1.5780 oh         1 9SG      -0.619000
     20 CAK          3.9590     1.1260    -0.4150 c3         1 9SG       0.126600
     21 OAD          5.1420     0.7250     0.3030 oh         1 9SG      -0.706000
     22 H1          -0.9040     5.4390     1.1750 hc         1 9SG       0.053367
     23 H2          -2.0850     4.3360     1.9980 hc         1 9SG       0.053367
     24 H3          -0.4240     4.1200     2.3230 hc         1 9SG       0.053367
     25 H4          -1.4850     1.9590     1.7550 hn         1 9SG       0.308500
     26 H5          -1.3020     1.2330    -1.1470 h1         1 9SG       0.102700
     27 H6          -2.4340    -0.2560     1.3030 hc         1 9SG       0.058200
     28 H7          -3.3690     0.5360     0.0390 hc         1 9SG       0.058200
     29 H8          -3.2410    -1.9620    -0.3490 h1         1 9SG       0.090700
     30 H9           0.2690    -0.1100     1.1300 h1         1 9SG       0.083700
     31 H11          1.2640     1.9410    -0.2050 h1         1 9SG       0.054700
     32 H12          0.9500    -0.1160    -2.0640 ho         1 9SG       0.526000
     33 H13          2.8240    -0.6800    -0.0780 h1         1 9SG       0.119700
     34 H14          3.6630     0.6320     1.8180 ho         1 9SG       0.415000
     35 H15          4.0680     0.8870    -1.4820 h1         1 9SG       0.020200
     36 H16          3.8120     2.2110    -0.3290 h1         1 9SG       0.020200
     37 H17          5.9090     1.1640    -0.1350 ho         1 9SG       0.486000
@<TRIPOS>BOND
     1     1     2 2   
     2     2     3 1   
     3     2     4 1   
     4     3    22 1   
     5     3    23 1   
     6     3    24 1   
     7     4     5 1   
     8     4    25 1   
     9     5     6 1   
    10     5     9 1   
    11     5    26 1   
    12     6     7 1   
    13     6    27 1   
    14     6    28 1   
    15     7     8 1   
    16     7    11 1   
    17     7    29 1   
    18     9    10 1   
    19     9    16 1   
    20     9    30 1   
    21    10    11 1   
    22    11    12 1   
    23    11    13 1   
    24    13    14 1   
    25    13    15 1   
    26    16    17 1   
    27    16    18 1   
    28    16    31 1   
    29    17    32 1   
    30    18    19 1   
    31    18    20 1   
    32    18    33 1   
    33    19    34 1   
    34    20    21 1   
    35    20    35 1   
    36    20    36 1   
    37    21    37 1   
@<TRIPOS>SUBSTRUCTURE
     1 9SG         1 TEMP              0 ****  ****    0 ROOT
