@<TRIPOS>MOLECULE
9SJ
   37    37     1     0     0
SMALL
bcc


@<TRIPOS>ATOM
      1 O10         -1.4380     3.2400    -1.5100 o          1 9SJ      -0.605100
      2 C10         -1.2440     3.2960    -0.3040 c          1 9SJ       0.672100
      3 C11         -1.2930     4.6060     0.4440 c3         1 9SJ      -0.182100
      4 N5          -0.9680     2.2200     0.4550 ns         1 9SJ      -0.560900
      5 C5          -0.9360     0.8610    -0.0220 c6         1 9SJ       0.072700
      6 C4          -2.0700     0.0550     0.6100 c6         1 9SJ       0.098100
      7 O4          -3.2920     0.6110     0.2010 oh         1 9SJ      -0.584800
      8 C3          -1.9460    -1.4190     0.2640 c6         1 9SJ       0.134600
      9 F1          -2.1850    -1.5890    -1.1020 f          1 9SJ      -0.234300
     10 C6           0.4160     0.2010     0.3050 c6         1 9SJ       0.140100
     11 O6           0.4080    -1.1500    -0.0850 os         1 9SJ      -0.346600
     12 C2          -0.5550    -1.9290     0.5800 c6         1 9SJ      -0.030900
     13 C1          -0.3990    -3.4210     0.2070 c          1 9SJ       0.953600
     14 O1A          0.5520    -3.7390    -0.5190 o          1 9SJ      -0.809300
     15 O1B         -1.2620    -4.1660     0.7110 o          1 9SJ      -0.809300
     16 C7           1.5660     0.8830    -0.4140 c3         1 9SJ      -0.096400
     17 C8           2.9370     0.3100    -0.0630 c3         1 9SJ       0.141100
     18 O8           3.1940     0.3520     1.3240 oh         1 9SJ      -0.572800
     19 C9           4.0150     1.0230    -0.8630 c3         1 9SJ       0.103400
     20 O9           5.2590     0.4120    -0.6150 oh         1 9SJ      -0.579800
     21 H1          -0.6110     5.3170    -0.0220 hc         1 9SJ       0.050700
     22 H2          -2.2970     5.0240     0.3710 hc         1 9SJ       0.050700
     23 H3          -1.0340     4.5180     1.4980 hc         1 9SJ       0.050700
     24 H4          -0.8540     2.3590     1.4470 hn         1 9SJ       0.297500
     25 H5          -1.0650     0.8830    -1.1060 h1         1 9SJ       0.116700
     26 H6          -1.9550     0.1170     1.7040 h1         1 9SJ       0.014700
     27 H7          -3.9850     0.2890     0.7860 ho         1 9SJ       0.395000
     28 H8          -2.6920    -2.0030     0.8080 h1         1 9SJ       0.070700
     29 H9           0.5740     0.2760     1.3950 h1         1 9SJ       0.020700
     30 H10         -0.4240    -1.8460     1.6730 h1         1 9SJ       0.020700
     31 H12          1.4100     0.8060    -1.4940 hc         1 9SJ       0.046200
     32 H13          1.5490     1.9520    -0.1770 hc         1 9SJ       0.046200
     33 H14          2.9580    -0.7500    -0.3310 h1         1 9SJ       0.127700
     34 H15          3.1500     1.2700     1.6150 ho         1 9SJ       0.376000
     35 H16          3.7470     0.9760    -1.9270 h1         1 9SJ       0.011700
     36 H17          4.0230     2.0890    -0.5880 h1         1 9SJ       0.011700
     37 H18          5.9180     0.8470    -1.1640 ho         1 9SJ       0.388000
@<TRIPOS>BOND
     1     1     2 2   
     2     2     3 1   
     3     2     4 1   
     4     3    21 1   
     5     3    22 1   
     6     3    23 1   
     7     4     5 1   
     8     4    24 1   
     9     5     6 1   
    10     5    10 1   
    11     5    25 1   
    12     6     7 1   
    13     6     8 1   
    14     6    26 1   
    15     7    27 1   
    16     8     9 1   
    17     8    12 1   
    18     8    28 1   
    19    10    11 1   
    20    10    16 1   
    21    10    29 1   
    22    11    12 1   
    23    12    13 1   
    24    12    30 1   
    25    13    14 1   
    26    13    15 1   
    27    16    17 1   
    28    16    31 1   
    29    16    32 1   
    30    17    18 1   
    31    17    19 1   
    32    17    33 1   
    33    18    34 1   
    34    19    20 1   
    35    19    35 1   
    36    19    36 1   
    37    20    37 1   
@<TRIPOS>SUBSTRUCTURE
     1 9SJ         1 TEMP              0 ****  ****    0 ROOT
