@<TRIPOS>MOLECULE
9SJ
   37    37     1     0     0
SMALL
No Charge or Current Charge


@<TRIPOS>ATOM
      1 O10         -0.6250     3.3100    -1.5360 o          1 9SJ      -0.605100
      2 C10         -0.9750     3.3910    -0.3680 c          1 9SJ       0.605100
      3 C11         -1.1810     4.7270     0.3360 c3         1 9SJ      -0.182100
      4 N5          -1.2150     2.2860     0.4140 ns         1 9SJ      -0.493900
      5 C5          -1.0950     0.8730    -0.0190 c6         1 9SJ       0.072700
      6 C4          -2.2100     0.0010     0.6410 c6         1 9SJ       0.121300
      7 O4          -3.5200     0.5090     0.3140 oh         1 9SJ      -0.647000
      8 C3          -2.0550    -1.4990     0.2370 c6         1 9SJ       0.153300
      9 F1          -2.3200    -1.6380    -1.1460 f          1 9SJ      -0.253000
     10 C6           0.3020     0.2590     0.3300 c6         1 9SJ       0.163300
     11 O6           0.3570    -1.1150    -0.1150 os         1 9SJ      -0.393000
     12 C2          -0.6160    -1.9960     0.5240 c6         1 9SJ      -0.007700
     13 C1          -0.4760    -3.5040     0.1330 c          1 9SJ       0.743000
     14 O1A          0.1880    -3.7630    -0.8650 o          1 9SJ      -0.704000
     15 O1B         -0.4740    -4.2860     1.0760 o          1 9SJ      -0.704000
     16 C7           1.4980     0.9940    -0.3420 c3         1 9SJ      -0.096400
     17 C8           2.8910     0.4060    -0.0130 c3         1 9SJ       0.164300
     18 O8           3.1740     0.5890     1.3840 oh         1 9SJ      -0.635000
     19 C9           4.0240     1.0780    -0.8360 c3         1 9SJ       0.126600
     20 O9           5.3030     0.5520    -0.4470 oh         1 9SJ      -0.642000
     21 H1          -0.9820     5.5850    -0.3170 hc         1 9SJ       0.050700
     22 H2          -2.1960     4.7600     0.7490 hc         1 9SJ       0.050700
     23 H3          -0.5610     4.7540     1.2390 hc         1 9SJ       0.050700
     24 H4          -1.5310     2.4680     1.3590 hn         1 9SJ       0.297500
     25 H5          -1.2260     0.8280    -1.1100 h1         1 9SJ       0.116700
     26 H6          -2.0730     0.0600     1.7310 h1         1 9SJ       0.014700
     27 H7          -4.1720    -0.0090     0.8360 ho         1 9SJ       0.434000
     28 H8          -2.7830    -2.1180     0.7790 h1         1 9SJ       0.070700
     29 H9           0.4460     0.2820     1.4200 h1         1 9SJ       0.020700
     30 H10         -0.4490    -1.9380     1.6100 h1         1 9SJ       0.020700
     31 H12          1.3600     0.9830    -1.4300 hc         1 9SJ       0.046200
     32 H13          1.5000     2.0500    -0.0460 hc         1 9SJ       0.046200
     33 H14          2.8890    -0.6640    -0.2720 h1         1 9SJ       0.127700
     34 H15          4.1540     0.5350     1.4490 ho         1 9SJ       0.415000
     35 H16          3.8500     0.8920    -1.9040 h1         1 9SJ       0.011700
     36 H17          3.9970     2.1640    -0.6780 h1         1 9SJ       0.011700
     37 H18          5.9770     0.9750    -1.0240 ho         1 9SJ       0.427000
@<TRIPOS>BOND
     1     1     2 2   
     2     2     3 1   
     3     2     4 1   
     4     3    21 1   
     5     3    22 1   
     6     3    23 1   
     7     4     5 1   
     8     4    24 1   
     9     5     6 1   
    10     5    10 1   
    11     5    25 1   
    12     6     7 1   
    13     6     8 1   
    14     6    26 1   
    15     7    27 1   
    16     8     9 1   
    17     8    12 1   
    18     8    28 1   
    19    10    11 1   
    20    10    16 1   
    21    10    29 1   
    22    11    12 1   
    23    12    13 1   
    24    12    30 1   
    25    13    14 1   
    26    13    15 1   
    27    16    17 1   
    28    16    31 1   
    29    16    32 1   
    30    17    18 1   
    31    17    19 1   
    32    17    33 1   
    33    18    34 1   
    34    19    20 1   
    35    19    35 1   
    36    19    36 1   
    37    20    37 1   
@<TRIPOS>SUBSTRUCTURE
     1 9SJ         1 TEMP              0 ****  ****    0 ROOT
