@<TRIPOS>MOLECULE
9SK
   78    83     1     0     0
SMALL
No Charge or Current Charge


@<TRIPOS>ATOM
      1 C10         -3.6300     0.8950    -0.0230 c6         1 9SK       0.187300
      2 C13         -2.1800     2.5760     1.2470 c6         1 9SK       0.133300
      3 C17         -1.0620     0.7790     0.0990 c6         1 9SK       0.261300
      4 C21          2.4810     2.9010    -1.2030 c6         1 9SK       0.151300
      5 C22          2.1560     3.6420    -2.5410 c3         1 9SK       0.172600
      6 C24          3.9810     2.4700    -1.0900 c6         1 9SK       0.130300
      7 C26          4.1730     1.7290     0.2720 c6         1 9SK       0.066300
      8 C28          6.1840     0.1770    -0.0150 cc         1 9SK      -0.173000
      9 C02         -7.2150    -2.1060    -1.7990 c          1 9SK       0.673300
     10 C04         -9.4600    -1.7480    -0.9870 ca         1 9SK       0.175100
     11 C05         -9.0640    -0.6400    -0.2180 ca         1 9SK      -0.169800
     12 C06         -7.6670    -0.2110    -0.2140 cc         1 9SK      -0.059200
     13 C07         -6.7710    -0.9410    -0.9800 cd         1 9SK      -0.225400
     14 C11         -3.5700     1.8660     1.1980 c6         1 9SK       0.139300
     15 C14         -2.0260     3.5310     2.4750 c3         1 9SK       0.170600
     16 C19          1.7100     1.0720     0.1800 c6         1 9SK       0.256300
     17 C29          7.4720     0.2710     0.4320 cd         1 9SK       0.234500
     18 C30          8.5740    -0.6900     0.2060 ca         1 9SK      -0.056500
     19 C31          9.8630    -0.4490     0.7370 ca         1 9SK      -0.135500
     20 C32         10.9080    -1.3630     0.5210 ca         1 9SK       0.159500
     21 C34         10.6870    -2.5320    -0.2260 ca         1 9SK       0.086000
     22 C36          9.4100    -2.7800    -0.7580 ca         1 9SK       0.159500
     23 C38          8.3620    -1.8690    -0.5450 ca         1 9SK      -0.135500
     24 C41          3.1640     0.5450     0.4140 c6         1 9SK       0.152300
     25 C43         -2.3730    -0.0580    -0.0450 c6         1 9SK       0.139300
     26 C45        -10.0370     0.0430     0.5440 ca         1 9SK       0.187000
     27 C47        -11.3810    -0.3810     0.5320 ca         1 9SK       0.106000
     28 C49        -11.7650    -1.4890    -0.2400 ca         1 9SK      -0.084000
     29 C50        -10.7990    -2.1720    -1.0010 ca         1 9SK      -0.119000
     30 F33         12.1310    -1.1080     1.0400 f          1 9SK      -0.156000
     31 F35         11.6970    -3.4120    -0.4330 f          1 9SK      -0.143000
     32 F37          9.1810    -3.9010    -1.4800 f          1 9SK      -0.156000
     33 F46         -9.6810     1.1130     1.2940 f          1 9SK      -0.150000
     34 F48        -12.3110     0.2750     1.2640 f          1 9SK      -0.155000
     35 N27          5.5850     1.3170     0.4720 na         1 9SK       0.137800
     36 N39          7.6170     1.4390     1.1510 nd         1 9SK      -0.348000
     37 N40          6.4770     2.0750     1.1740 nc         1 9SK      -0.191800
     38 O03         -8.5430    -2.4290    -1.7380 os         1 9SK      -0.326200
     39 O09         -4.8990     0.1820     0.0400 os         1 9SK      -0.453000
     40 O12         -3.8660     1.1370     2.4090 oh         1 9SK      -0.691000
     41 O15         -0.7600     4.2190     2.5010 oh         1 9SK      -0.709000
     42 O16         -1.1170     1.5970     1.2810 os         1 9SK      -0.413000
     43 O20          1.6170     1.7410    -1.0930 os         1 9SK      -0.407000
     44 O25          4.3670     1.6210    -2.1960 oh         1 9SK      -0.707000
     45 O42          3.2870    -0.0820     1.7100 oh         1 9SK      -0.704000
     46 O44         -2.3180    -0.8770    -1.2400 oh         1 9SK      -0.714000
     47 S18          0.4490    -0.2760     0.2070 ss         1 9SK      -0.358000
     48 H101        -3.6210     1.5030    -0.9390 h1         1 9SK       0.051700
     49 H131        -2.0630     3.1870     0.3390 h1         1 9SK       0.053700
     50 H211         2.2450     3.5920    -0.3800 h1         1 9SK       0.059700
     51 H222         2.8280     4.5070    -2.6240 h1         1 9SK       0.035200
     52 H221         2.3890     2.9670    -3.3770 h1         1 9SK       0.035200
     53 H241         4.5980     3.3820    -1.0820 h1         1 9SK       0.060700
     54 H261         3.9400     2.4470     1.0700 h1         1 9SK       0.110700
     55 H281         5.6720    -0.5680    -0.6070 h4         1 9SK       0.178000
     56 H061        -7.3330     0.6480     0.3640 ha         1 9SK       0.223000
     57 H111        -4.3370     2.6390     1.0450 h1         1 9SK       0.045700
     58 H141        -2.8480     4.2600     2.4460 h1         1 9SK       0.030200
     59 H142        -2.1480     2.9400     3.3930 h1         1 9SK       0.030200
     60 H311        10.0630     0.4460     1.3190 ha         1 9SK       0.148500
     61 H381         7.3860    -2.0900    -0.9690 ha         1 9SK       0.148500
     62 H411         3.3750    -0.1900    -0.3770 h1         1 9SK       0.067700
     63 H431        -2.4390    -0.7070     0.8420 h1         1 9SK       0.081700
     64 H491       -12.8020    -1.8150    -0.2470 ha         1 9SK       0.144000
     65 H501       -11.0870    -3.0310    -1.6020 ha         1 9SK       0.149000
     66 H121        -4.5810     0.5050     2.1580 ho         1 9SK       0.505000
     67 H151        -0.7300     4.7340     3.3410 ho         1 9SK       0.509000
     68 H251         5.3070     1.8250    -2.4150 ho         1 9SK       0.514000
     69 H421         2.6040    -0.7940     1.7510 ho         1 9SK       0.533000
     70 H441        -1.4740    -1.3860    -1.1970 ho         1 9SK       0.526000
     71 H171        -0.9400     1.4190    -0.7890 h2         1 9SK       0.072700
     72 H191         1.4440     1.7730     0.9870 h2         1 9SK       0.079700
     73 O23          0.7830     4.0750    -2.6300 oh         1 9SK      -0.710000
     74 C08         -5.2940    -0.6240    -1.0870 c3         1 9SK       0.222800
     75 O01         -6.4510    -2.7550    -2.5010 o          1 9SK      -0.477000
     76 H081        -4.7220    -1.5600    -1.1030 h1         1 9SK       0.061200
     77 H082        -5.1130    -0.0920    -2.0310 h1         1 9SK       0.061200
     78 H231         0.6610     4.4600    -3.5290 ho         1 9SK       0.510000
@<TRIPOS>BOND
     1     1    14 1   
     2     1    25 1   
     3     1    39 1   
     4     1    48 1   
     5     2    14 1   
     6     2    15 1   
     7     2    42 1   
     8     2    49 1   
     9     3    25 1   
    10     3    42 1   
    11     3    47 1   
    12     3    71 1   
    13     4     5 1   
    14     4     6 1   
    15     4    43 1   
    16     4    50 1   
    17     5    51 1   
    18     5    52 1   
    19     5    73 1   
    20     6     7 1   
    21     6    44 1   
    22     6    53 1   
    23     7    24 1   
    24     7    35 1   
    25     7    54 1   
    26     8    17 2   
    27     8    35 1   
    28     8    55 1   
    29     9    13 1   
    30     9    38 1   
    31     9    75 2   
    32    10    11 ar  
    33    10    29 ar  
    34    10    38 1   
    35    11    12 1   
    36    11    26 ar  
    37    12    13 2   
    38    12    56 1   
    39    13    74 1   
    40    14    40 1   
    41    14    57 1   
    42    15    41 1   
    43    15    58 1   
    44    15    59 1   
    45    16    24 1   
    46    16    43 1   
    47    16    47 1   
    48    16    72 1   
    49    17    18 1   
    50    17    36 1   
    51    18    19 ar  
    52    18    23 ar  
    53    19    20 ar  
    54    19    60 1   
    55    20    21 ar  
    56    20    30 1   
    57    21    22 ar  
    58    21    31 1   
    59    22    23 ar  
    60    22    32 1   
    61    23    61 1   
    62    24    45 1   
    63    24    62 1   
    64    25    46 1   
    65    25    63 1   
    66    26    27 ar  
    67    26    33 1   
    68    27    28 ar  
    69    27    34 1   
    70    28    29 ar  
    71    28    64 1   
    72    29    65 1   
    73    35    37 1   
    74    36    37 2   
    75    39    74 1   
    76    40    66 1   
    77    41    67 1   
    78    44    68 1   
    79    45    69 1   
    80    46    70 1   
    81    73    78 1   
    82    74    76 1   
    83    74    77 1   
@<TRIPOS>SUBSTRUCTURE
     1 9SK         1 TEMP              0 ****  ****    0 ROOT
