@<TRIPOS>MOLECULE
9SK
   78    83     1     0     0
SMALL
abcg2


@<TRIPOS>ATOM
      1 C10         -3.5460     0.5900    -0.0820 c6         1 9SK       0.187300
      2 C13         -2.2410     1.8490     1.6070 c6         1 9SK       0.133300
      3 C17         -1.0700     0.6550    -0.0250 c6         1 9SK       0.261300
      4 C21          2.5570     2.4370    -2.1720 c6         1 9SK       0.151300
      5 C22          2.4530     2.7740    -3.6430 c3         1 9SK       0.172600
      6 C24          3.9880     2.1030    -1.7610 c6         1 9SK       0.130300
      7 C26          3.9780     1.7360    -0.2740 c6         1 9SK       0.066300
      8 C28          6.0530     0.3190    -0.0400 cc         1 9SK      -0.173000
      9 C02         -7.7460    -0.0740    -2.3780 c          1 9SK       0.673300
     10 C04         -9.6140    -0.5070    -0.9620 ca         1 9SK       0.175100
     11 C05         -8.7950    -0.6090     0.1610 ca         1 9SK      -0.169800
     12 C06         -7.3800    -0.4330    -0.0040 cc         1 9SK      -0.059200
     13 C07         -6.8670    -0.1760    -1.2210 cd         1 9SK      -0.225400
     14 C11         -3.5310     1.0640     1.3670 c6         1 9SK       0.139300
     15 C14         -2.1210     2.3370     3.0320 c3         1 9SK       0.170600
     16 C19          1.6280     1.0450    -0.5380 c6         1 9SK       0.256300
     17 C29          7.2320     0.5690     0.6210 cd         1 9SK       0.234500
     18 C30          8.4340    -0.2490     0.7340 ca         1 9SK      -0.056500
     19 C31          9.5240     0.2170     1.4680 ca         1 9SK      -0.135500
     20 C32         10.6550    -0.5620     1.5700 ca         1 9SK       0.159500
     21 C34         10.7370    -1.8000     0.9600 ca         1 9SK       0.086000
     22 C36          9.6490    -2.2510     0.2340 ca         1 9SK       0.159500
     23 C38          8.5040    -1.4950     0.1130 ca         1 9SK      -0.135500
     24 C41          2.9910     0.6110     0.0200 c6         1 9SK       0.152300
     25 C43         -2.2840    -0.1990    -0.4200 c6         1 9SK       0.139300
     26 C45         -9.4040    -0.8790     1.3840 ca         1 9SK       0.187000
     27 C47        -10.7690    -1.0360     1.4740 ca         1 9SK       0.106000
     28 C49        -11.5640    -0.9280     0.3460 ca         1 9SK      -0.084000
     29 C50        -10.9890    -0.6620    -0.8840 ca         1 9SK      -0.119000
     30 F33         11.7070    -0.1320     2.2680 f          1 9SK      -0.156000
     31 F35         11.8360    -2.5420     1.0690 f          1 9SK      -0.143000
     32 F37          9.7300    -3.4450    -0.3530 f          1 9SK      -0.156000
     33 F46         -8.6530    -0.9870     2.4780 f          1 9SK      -0.150000
     34 F48        -11.3180    -1.2940     2.6630 f          1 9SK      -0.155000
     35 N27          5.3090     1.4100     0.1990 na         1 9SK       0.137800
     36 N39          7.1250     1.7840     1.2050 nd         1 9SK      -0.348000
     37 N40          5.9700     2.2800     0.9480 nc         1 9SK      -0.191800
     38 O03         -9.0720    -0.2460    -2.1730 os         1 9SK      -0.326200
     39 O09         -4.6990    -0.1820    -0.2960 os         1 9SK      -0.453000
     40 O12         -3.6310    -0.0560     2.2140 oh         1 9SK      -0.691000
     41 O15         -1.0020     3.1850     3.1320 oh         1 9SK      -0.709000
     42 O16         -1.1160     1.0360     1.3170 os         1 9SK      -0.413000
     43 O20          1.7020     1.3390    -1.9000 os         1 9SK      -0.407000
     44 O25          4.4820     1.0340    -2.5280 oh         1 9SK      -0.707000
     45 O42          2.9590     0.4340     1.4050 oh         1 9SK      -0.704000
     46 O44         -2.3020    -0.4520    -1.7980 oh         1 9SK      -0.714000
     47 S18          0.4420    -0.2990    -0.2990 ss         1 9SK      -0.358000
     48 H101        -3.5570     1.4890    -0.7150 h1         1 9SK       0.051700
     49 H131        -2.2530     2.7240     0.9360 h1         1 9SK       0.053700
     50 H211         2.2390     3.3140    -1.5870 h1         1 9SK       0.059700
     51 H222         3.2210     3.5250    -3.8680 h1         1 9SK       0.035200
     52 H221         2.6860     1.8860    -4.2400 h1         1 9SK       0.035200
     53 H241         4.6000     3.0030    -1.8840 h1         1 9SK       0.060700
     54 H261         3.6780     2.6190     0.2970 h1         1 9SK       0.110700
     55 H281         5.7090    -0.5170    -0.6220 h4         1 9SK       0.178000
     56 H061        -6.7260    -0.5050     0.8540 ha         1 9SK       0.223000
     57 H111        -4.3780     1.7480     1.5050 h1         1 9SK       0.045700
     58 H141        -3.0520     2.8620     3.2830 h1         1 9SK       0.030200
     59 H142        -2.0410     1.4780     3.7090 h1         1 9SK       0.030200
     60 H311         9.4960     1.1800     1.9610 ha         1 9SK       0.148500
     61 H381         7.6790    -1.8880    -0.4670 ha         1 9SK       0.148500
     62 H411         3.3020    -0.3040    -0.5050 h1         1 9SK       0.067700
     63 H431        -2.2730    -1.1280     0.1680 h1         1 9SK       0.081700
     64 H491       -12.6350    -1.0510     0.4350 ha         1 9SK       0.144000
     65 H501       -11.6040    -0.5760    -1.7700 ha         1 9SK       0.149000
     66 H121        -4.1690     0.1730     2.9760 ho         1 9SK       0.505000
     67 H151        -0.9520     3.5040     4.0370 ho         1 9SK       0.509000
     68 H251         5.3400     1.2720    -2.8880 ho         1 9SK       0.514000
     69 H421         2.3490    -0.2840     1.6100 ho         1 9SK       0.533000
     70 H441        -1.6020    -1.0780    -2.0130 ho         1 9SK       0.526000
     71 H171        -1.0350     1.5340    -0.6870 h2         1 9SK       0.072700
     72 H191         1.2720     1.9090     0.0440 h2         1 9SK       0.079700
     73 O23          1.1570     3.2570    -3.9030 oh         1 9SK      -0.710000
     74 C08         -5.4050     0.0220    -1.4860 c3         1 9SK       0.222800
     75 O01         -7.3800     0.1550    -3.5030 o          1 9SK      -0.477000
     76 H081        -5.0770    -0.6690    -2.2720 h1         1 9SK       0.061200
     77 H082        -5.2480     1.0340    -1.8810 h1         1 9SK       0.061200
     78 H231         1.0770     3.3940    -4.8510 ho         1 9SK       0.510000
@<TRIPOS>BOND
     1     1    14 1   
     2     1    25 1   
     3     1    39 1   
     4     1    48 1   
     5     2    14 1   
     6     2    15 1   
     7     2    42 1   
     8     2    49 1   
     9     3    25 1   
    10     3    42 1   
    11     3    47 1   
    12     3    71 1   
    13     4     5 1   
    14     4     6 1   
    15     4    43 1   
    16     4    50 1   
    17     5    51 1   
    18     5    52 1   
    19     5    73 1   
    20     6     7 1   
    21     6    44 1   
    22     6    53 1   
    23     7    24 1   
    24     7    35 1   
    25     7    54 1   
    26     8    17 2   
    27     8    35 1   
    28     8    55 1   
    29     9    13 1   
    30     9    38 1   
    31     9    75 2   
    32    10    11 ar  
    33    10    29 ar  
    34    10    38 1   
    35    11    12 1   
    36    11    26 ar  
    37    12    13 2   
    38    12    56 1   
    39    13    74 1   
    40    14    40 1   
    41    14    57 1   
    42    15    41 1   
    43    15    58 1   
    44    15    59 1   
    45    16    24 1   
    46    16    43 1   
    47    16    47 1   
    48    16    72 1   
    49    17    18 1   
    50    17    36 1   
    51    18    19 ar  
    52    18    23 ar  
    53    19    20 ar  
    54    19    60 1   
    55    20    21 ar  
    56    20    30 1   
    57    21    22 ar  
    58    21    31 1   
    59    22    23 ar  
    60    22    32 1   
    61    23    61 1   
    62    24    45 1   
    63    24    62 1   
    64    25    46 1   
    65    25    63 1   
    66    26    27 ar  
    67    26    33 1   
    68    27    28 ar  
    69    27    34 1   
    70    28    29 ar  
    71    28    64 1   
    72    29    65 1   
    73    35    37 1   
    74    36    37 2   
    75    39    74 1   
    76    40    66 1   
    77    41    67 1   
    78    44    68 1   
    79    45    69 1   
    80    46    70 1   
    81    73    78 1   
    82    74    76 1   
    83    74    77 1   
@<TRIPOS>SUBSTRUCTURE
     1 9SK         1 TEMP              0 ****  ****    0 ROOT
