@<TRIPOS>MOLECULE
9SL
   38    40     1     0     0
SMALL
bcc


@<TRIPOS>ATOM
      1 C10          1.2910    -0.4050    -0.0490 c5         1 9SL       0.446400
      2 C20          0.7690    -1.2120    -2.2550 c5         1 9SL       0.248800
      3 O01         -4.3160    -0.9820     0.8350 o          1 9SL      -0.602000
      4 C02         -4.1870     0.2210     0.7230 c          1 9SL       0.756100
      5 O03         -3.0130     0.8540     0.7720 os         1 9SL      -0.425900
      6 C04         -1.8450     0.0580     0.9540 c3         1 9SL       0.155400
      7 C05         -0.6430     0.9930     0.8610 c6         1 9SL       0.132500
      8 N06         -0.5960     1.6710    -0.4130 n2         1 9SL      -0.732900
      9 C07         -0.1750     0.9540    -1.3970 c2         1 9SL       0.838100
     10 N08         -0.4080     1.3420    -2.6890 nv         1 9SL      -0.907800
     11 N09          0.4560    -0.2380    -1.2230 nh         1 9SL      -0.801600
     12 N11          2.5590     0.2640    -0.2250 n2         1 9SL      -0.739900
     13 C12          2.6760     1.1100     0.7330 c2         1 9SL       0.803100
     14 N13          1.6990     1.0810     1.6930 nu         1 9SL      -0.850200
     15 C14          0.6370     0.2150     1.2140 c5         1 9SL       0.171500
     16 N15          3.6790     2.0170     0.8430 nv         1 9SL      -0.904800
     17 C16          1.4700    -1.9330    -0.0580 c5         1 9SL       0.356600
     18 O17          2.5230    -2.2810     0.7740 oh         1 9SL      -0.590800
     19 O18          0.2590    -2.4840     0.3770 oh         1 9SL      -0.590800
     20 C19          1.6940    -2.2090    -1.5460 c5         1 9SL      -0.152400
     21 N21         -5.1940     1.0870     0.5130 nt         1 9SL      -0.666000
     22 H1          -0.1460    -1.6850    -2.6180 h1         1 9SL       0.043700
     23 H2           1.2800    -0.7780    -3.1190 h1         1 9SL       0.043700
     24 H3          -1.8710    -0.4230     1.9370 h1         1 9SL       0.059700
     25 H4          -1.7900    -0.7260     0.1980 h1         1 9SL       0.059700
     26 H5          -0.7760     1.7530     1.6410 h1         1 9SL       0.067700
     27 H6          -0.8100     2.2630    -2.7680 hn         1 9SL       0.408800
     28 H7           0.3230     1.1760    -3.3630 hn         1 9SL       0.408800
     29 H9           0.4150    -0.5450     1.9690 h1         1 9SL       0.105700
     30 H10          4.4940     1.8320     0.2810 hn         1 9SL       0.419800
     31 H11          3.8940     2.3580     1.7660 hn         1 9SL       0.419800
     32 H12          2.7380    -3.2120     0.6470 ho         1 9SL       0.407000
     33 H13          0.1760    -3.3860     0.0490 ho         1 9SL       0.407000
     34 H14          1.4810    -3.2430    -1.8240 hc         1 9SL       0.065200
     35 H15          2.7340    -2.0040    -1.7980 hc         1 9SL       0.065200
     36 H16         -6.1410     0.7560     0.5670 hn         1 9SL       0.324000
     37 H17         -5.0460     2.0810     0.5370 hn         1 9SL       0.324000
     38 H8           1.4490     1.9400     2.1620 hn         1 9SL       0.425800
@<TRIPOS>BOND
     1     1    11 1   
     2     1    12 1   
     3     1    15 1   
     4     1    17 1   
     5     2    11 1   
     6     2    20 1   
     7     2    22 1   
     8     2    23 1   
     9     3     4 2   
    10     4     5 1   
    11     4    21 1   
    12     5     6 1   
    13     6     7 1   
    14     6    24 1   
    15     6    25 1   
    16     7     8 1   
    17     7    15 1   
    18     7    26 1   
    19     8     9 2   
    20     9    10 1   
    21     9    11 1   
    22    10    27 1   
    23    10    28 1   
    24    12    13 2   
    25    13    14 1   
    26    13    16 1   
    27    14    15 1   
    28    14    38 1   
    29    15    29 1   
    30    16    30 1   
    31    16    31 1   
    32    17    18 1   
    33    17    19 1   
    34    17    20 1   
    35    18    32 1   
    36    19    33 1   
    37    20    34 1   
    38    20    35 1   
    39    21    36 1   
    40    21    37 1   
@<TRIPOS>SUBSTRUCTURE
     1 9SL         1 TEMP              0 ****  ****    0 ROOT
