@<TRIPOS>MOLECULE
9SL
   38    40     1     0     0
SMALL
No Charge or Current Charge


@<TRIPOS>ATOM
      1 C10          1.4510    -0.2520    -0.1200 c5         1 9SL       0.446400
      2 C20          0.4400    -1.1880    -2.1300 c5         1 9SL       0.248800
      3 O01         -4.2770    -1.3280     0.8570 o          1 9SL      -0.553000
      4 C02         -4.2360    -0.1140     0.7870 c          1 9SL       0.640100
      5 O03         -3.1160     0.6530     0.7490 os         1 9SL      -0.449100
      6 C04         -1.8420    -0.0220     0.7860 c3         1 9SL       0.178600
      7 C05         -0.6880     1.0290     0.7060 c6         1 9SL       0.132500
      8 N06         -0.6360     1.6510    -0.6410 n2         1 9SL      -0.732900
      9 C07          0.0390     1.1120    -1.5700 c2         1 9SL       0.838100
     10 N08          0.1940     1.6710    -2.7550 nv         1 9SL      -1.018200
     11 N09          0.8730     0.0510    -1.4490 nh         1 9SL      -0.801600
     12 N11          2.8550     0.2140    -0.1090 n2         1 9SL      -0.739900
     13 C12          2.8090     1.2170     0.6390 c2         1 9SL       0.803100
     14 N13          1.7560     1.5390     1.3860 nu         1 9SL      -0.905400
     15 C14          0.7280     0.4950     1.0740 c5         1 9SL       0.171500
     16 N15          3.8100     1.9030     1.1280 nv         1 9SL      -1.015200
     17 C16          1.3200    -1.8680     0.0250 c5         1 9SL       0.403000
     18 O17          2.3660    -2.4860     0.7580 oh         1 9SL      -0.653000
     19 O18          0.1050    -2.3310     0.5890 oh         1 9SL      -0.653000
     20 C19          1.3820    -2.2470    -1.4810 c5         1 9SL      -0.152400
     21 N21         -5.3250     0.6650     0.7450 nt         1 9SL      -0.599000
     22 H1          -0.6150    -1.4130    -1.9210 h1         1 9SL       0.043700
     23 H2           0.5670    -1.1350    -3.2200 h1         1 9SL       0.043700
     24 H3          -1.7410    -0.5880     1.7220 h1         1 9SL       0.059700
     25 H4          -1.7560    -0.7230    -0.0540 h1         1 9SL       0.059700
     26 H5          -0.9320     1.8140     1.4360 h1         1 9SL       0.067700
     27 H6           0.0310     2.6650    -2.6960 hn         1 9SL       0.464000
     28 H7           1.0960     1.4130    -3.1230 hn         1 9SL       0.464000
     29 H9           0.6230    -0.1840     1.9330 h1         1 9SL       0.105700
     30 H10          4.6790     1.4140     0.9710 hn         1 9SL       0.475000
     31 H11          3.6300     2.1140     2.0980 hn         1 9SL       0.475000
     32 H12          2.6820    -3.2280     0.2050 ho         1 9SL       0.446000
     33 H13         -0.0310    -3.2350     0.2390 ho         1 9SL       0.446000
     34 H14          1.0540    -3.2710    -1.6870 hc         1 9SL       0.065200
     35 H15          2.4000    -2.1480    -1.8770 hc         1 9SL       0.065200
     36 H16         -6.2400     0.2430     0.7670 hn         1 9SL       0.324000
     37 H17         -5.2140     1.6650     0.6880 hn         1 9SL       0.324000
     38 H8           1.4990     2.5110     1.2470 hn         1 9SL       0.481000
@<TRIPOS>BOND
     1     1    11 1   
     2     1    12 1   
     3     1    15 1   
     4     1    17 1   
     5     2    11 1   
     6     2    20 1   
     7     2    22 1   
     8     2    23 1   
     9     3     4 2   
    10     4     5 1   
    11     4    21 1   
    12     5     6 1   
    13     6     7 1   
    14     6    24 1   
    15     6    25 1   
    16     7     8 1   
    17     7    15 1   
    18     7    26 1   
    19     8     9 2   
    20     9    10 1   
    21     9    11 1   
    22    10    27 1   
    23    10    28 1   
    24    12    13 2   
    25    13    14 1   
    26    13    16 1   
    27    14    15 1   
    28    14    38 1   
    29    15    29 1   
    30    16    30 1   
    31    16    31 1   
    32    17    18 1   
    33    17    19 1   
    34    17    20 1   
    35    18    32 1   
    36    19    33 1   
    37    20    34 1   
    38    20    35 1   
    39    21    36 1   
    40    21    37 1   
@<TRIPOS>SUBSTRUCTURE
     1 9SL         1 TEMP              0 ****  ****    0 ROOT
