@<TRIPOS>MOLECULE
9SM
   37    37     1     0     0
SMALL
No Charge or Current Charge


@<TRIPOS>ATOM
      1 OAC         -1.2110     2.9760    -1.8650 o          1 9SM      -0.690000
      2 CAO         -0.2230     2.6480    -1.2160 c          1 9SM       0.699000
      3 OAE          0.9010     2.6160    -1.7070 o          1 9SM      -0.690000
      4 CAV         -0.4300     2.1240     0.2740 c6         1 9SM       0.253000
      5 FAJ         -0.1760     3.2150     1.1410 f          1 9SM      -0.248000
      6 CAS         -1.8930     1.6490     0.5460 c6         1 9SM       0.123300
      7 FAI         -2.0600     1.4100     1.9370 f          1 9SM      -0.274000
      8 CAR         -2.1670     0.3120    -0.2100 c6         1 9SM       0.130300
      9 OAG         -3.5010    -0.1790     0.0500 oh         1 9SM      -0.653000
     10 OAM          0.4990     1.0670     0.6660 os         1 9SM      -0.459000
     11 CAU          0.3370    -0.1810    -0.0560 c6         1 9SM       0.188300
     12 CAQ          1.4720    -1.1240     0.4420 c3         1 9SM      -0.099400
     13 CAP          2.9050    -0.6090     0.1740 c3         1 9SM       0.166300
     14 CAK          3.9860    -1.4830     0.8660 c3         1 9SM       0.124600
     15 OAD          5.3010    -1.0110     0.5290 oh         1 9SM      -0.641000
     16 OAF          3.1560    -0.6110    -1.2400 oh         1 9SM      -0.621000
     17 CAT         -1.1000    -0.7620     0.1780 c6         1 9SM       0.070700
     18 NAL         -1.3300    -2.0200    -0.5720 ns         1 9SM      -0.492900
     19 CAN         -1.1820    -3.2940    -0.0730 c          1 9SM       0.605100
     20 OAB         -0.8260    -3.5160     1.0750 o          1 9SM      -0.611100
     21 CAA         -1.4990    -4.4070    -1.0630 c3         1 9SM      -0.182100
     22 H2          -2.6120     2.4260     0.2510 h1         1 9SM       0.085700
     23 H3          -2.0640     0.5060    -1.2890 h1         1 9SM       0.063700
     24 H4          -4.1320     0.5000    -0.2740 ho         1 9SM       0.438000
     25 H5           0.4840    -0.0030    -1.1320 h1         1 9SM       0.071700
     26 H6           1.3520    -1.2890     1.5200 hc         1 9SM       0.045700
     27 H7           1.3760    -2.1080    -0.0300 hc         1 9SM       0.045700
     28 H8           2.9950     0.4100     0.5820 h1         1 9SM       0.123700
     29 H9           3.8380    -1.4420     1.9530 h1         1 9SM       0.011200
     30 H10          3.8670    -2.5290     0.5510 h1         1 9SM       0.011200
     31 H11          5.9420    -1.5680     1.0230 ho         1 9SM       0.426000
     32 H12          4.1360    -0.6160    -1.3200 ho         1 9SM       0.413000
     33 H13         -1.2080    -0.9740     1.2520 h1         1 9SM       0.106700
     34 H14         -1.6630    -1.9540    -1.5260 hn         1 9SM       0.306500
     35 H15         -0.8840    -4.2720    -1.9610 hc         1 9SM       0.051700
     36 H16         -1.3710    -5.4060    -0.6320 hc         1 9SM       0.051700
     37 H17         -2.5130    -4.2610    -1.4530 hc         1 9SM       0.051700
@<TRIPOS>BOND
     1     1     2 1   
     2     2     3 1   
     3     2     4 1   
     4     4     5 1   
     5     4     6 1   
     6     4    10 1   
     7     6     7 1   
     8     6     8 1   
     9     6    22 1   
    10     8     9 1   
    11     8    17 1   
    12     8    23 1   
    13     9    24 1   
    14    10    11 1   
    15    11    12 1   
    16    11    17 1   
    17    11    25 1   
    18    12    13 1   
    19    12    26 1   
    20    12    27 1   
    21    13    14 1   
    22    13    16 1   
    23    13    28 1   
    24    14    15 1   
    25    14    29 1   
    26    14    30 1   
    27    15    31 1   
    28    16    32 1   
    29    17    18 1   
    30    17    33 1   
    31    18    19 1   
    32    18    34 1   
    33    19    20 2   
    34    19    21 1   
    35    21    35 1   
    36    21    36 1   
    37    21    37 1   
@<TRIPOS>SUBSTRUCTURE
     1 9SM         1 TEMP              0 ****  ****    0 ROOT
