@<TRIPOS>MOLECULE
9SM
   37    37     1     0     0
SMALL
bcc


@<TRIPOS>ATOM
      1 OAC         -1.2040     2.8920    -1.7820 o          1 9SM      -0.795300
      2 CAO         -0.1850     2.5720    -1.1450 c          1 9SM       0.909600
      3 OAE          1.0010     2.6500    -1.4880 o          1 9SM      -0.795300
      4 CAV         -0.4350     2.0460     0.3040 c6         1 9SM       0.211100
      5 FAJ         -0.2150     3.1200     1.1450 f          1 9SM      -0.229300
      6 CAS         -1.8490     1.5380     0.5390 c6         1 9SM       0.104600
      7 FAI         -2.0090     1.3180     1.9070 f          1 9SM      -0.255300
      8 CAR         -2.0570     0.2180    -0.1890 c6         1 9SM       0.107100
      9 OAG         -3.3040    -0.3510     0.1010 oh         1 9SM      -0.590800
     10 OAM          0.4810     1.0970     0.7190 os         1 9SM      -0.412600
     11 CAU          0.4190    -0.1360     0.0220 c6         1 9SM       0.165100
     12 CAQ          1.5400    -1.0040     0.5600 c3         1 9SM      -0.099400
     13 CAP          2.9260    -0.5400     0.1170 c3         1 9SM       0.143100
     14 CAK          3.9950    -1.3200     0.8640 c3         1 9SM       0.101400
     15 OAD          5.2670    -0.8540     0.4810 oh         1 9SM      -0.578800
     16 OAF          3.0830    -0.6290    -1.2820 oh         1 9SM      -0.558800
     17 CAT         -0.9650    -0.7780     0.2060 c6         1 9SM       0.070700
     18 NAL         -1.0670    -1.9720    -0.5930 ns         1 9SM      -0.559900
     19 CAN         -1.4470    -3.1760    -0.1240 c          1 9SM       0.672100
     20 OAB         -1.6840    -3.3950     1.0550 o          1 9SM      -0.611100
     21 CAA         -1.5590    -4.2580    -1.1690 c3         1 9SM      -0.182100
     22 H2          -2.5910     2.2780     0.2330 h1         1 9SM       0.085700
     23 H3          -1.9560     0.4250    -1.2630 h1         1 9SM       0.063700
     24 H4          -3.9720     0.0800    -0.4410 ho         1 9SM       0.399000
     25 H5           0.5820     0.0330    -1.0530 h1         1 9SM       0.071700
     26 H6           1.4780    -1.0180     1.6530 hc         1 9SM       0.045700
     27 H7           1.3890    -2.0360     0.2310 hc         1 9SM       0.045700
     28 H8           3.0410     0.5210     0.3560 h1         1 9SM       0.123700
     29 H9           3.8250    -1.1960     1.9410 h1         1 9SM       0.011200
     30 H10          3.8740    -2.3930     0.6490 h1         1 9SM       0.011200
     31 H11          5.9260    -1.3530     0.9710 ho         1 9SM       0.387000
     32 H12          2.9970    -1.5540    -1.5390 ho         1 9SM       0.374000
     33 H13         -1.0950    -1.0650     1.2520 h1         1 9SM       0.106700
     34 H14         -0.9230    -1.8740    -1.5860 hn         1 9SM       0.306500
     35 H15         -1.1920    -3.9590    -2.1480 hc         1 9SM       0.051700
     36 H16         -1.0070    -5.1380    -0.8420 hc         1 9SM       0.051700
     37 H17         -2.6050    -4.5510    -1.2700 hc         1 9SM       0.051700
@<TRIPOS>BOND
     1     1     2 1   
     2     2     3 1   
     3     2     4 1   
     4     4     5 1   
     5     4     6 1   
     6     4    10 1   
     7     6     7 1   
     8     6     8 1   
     9     6    22 1   
    10     8     9 1   
    11     8    17 1   
    12     8    23 1   
    13     9    24 1   
    14    10    11 1   
    15    11    12 1   
    16    11    17 1   
    17    11    25 1   
    18    12    13 1   
    19    12    26 1   
    20    12    27 1   
    21    13    14 1   
    22    13    16 1   
    23    13    28 1   
    24    14    15 1   
    25    14    29 1   
    26    14    30 1   
    27    15    31 1   
    28    16    32 1   
    29    17    18 1   
    30    17    33 1   
    31    18    19 1   
    32    18    34 1   
    33    19    20 2   
    34    19    21 1   
    35    21    35 1   
    36    21    36 1   
    37    21    37 1   
@<TRIPOS>SUBSTRUCTURE
     1 9SM         1 TEMP              0 ****  ****    0 ROOT
