@<TRIPOS>MOLECULE
9SP
   37    37     1     0     0
SMALL
No Charge or Current Charge


@<TRIPOS>ATOM
      1 OAC         -0.7880     4.0190    -1.1840 o          1 9SP      -0.693000
      2 CAO         -0.5700     2.8120    -1.1350 c          1 9SP       0.701000
      3 OAE          0.1320     2.3080    -2.0050 o          1 9SP      -0.693000
      4 CAV         -0.5730     2.1390     0.3200 c6         1 9SP       0.253000
      5 FAJ         -0.3980     3.1600     1.2910 f          1 9SP      -0.246000
      6 CAS         -1.9530     1.4790     0.6060 c6         1 9SP       0.121300
      7 FAI         -2.0400     1.1370     1.9820 f          1 9SP      -0.271000
      8 CAR         -2.1040     0.1690    -0.2240 c6         1 9SP       0.128300
      9 OAF         -3.3770    -0.4670     0.0220 oh         1 9SP      -0.649000
     10 OAM          0.4970     1.1730     0.5890 os         1 9SP      -0.463000
     11 CAU          0.4400    -0.0890    -0.1440 c6         1 9SP       0.150300
     12 CAQ          1.6770    -0.9190     0.3430 c3         1 9SP       0.187300
     13 CAP          3.0100    -0.4350    -0.2780 c3         1 9SP      -0.116400
     14 CAK          4.2200    -1.3170     0.0860 c3         1 9SP       0.161600
     15 OAD          5.3820    -0.8380    -0.5980 oh         1 9SP      -0.659000
     16 OAG          1.7860    -0.8320     1.7720 oh         1 9SP      -0.725000
     17 CAT         -0.9290    -0.8130     0.0890 c6         1 9SP       0.078700
     18 NAL         -1.0520    -2.0370    -0.7390 ns         1 9SP      -0.493900
     19 CAN         -0.8520    -3.3280    -0.3090 c          1 9SP       0.608100
     20 OAB         -0.5230    -3.6010     0.8350 o          1 9SP      -0.599100
     21 CAA         -1.0700    -4.3950    -1.3750 c3         1 9SP      -0.181100
     22 H2          -2.7650     2.1850     0.3800 h1         1 9SP       0.086700
     23 H3          -2.0390     0.4380    -1.2900 h1         1 9SP       0.057700
     24 H4          -4.0800     0.1500    -0.2790 ho         1 9SP       0.437000
     25 H5           0.5610     0.0900    -1.2200 h1         1 9SP       0.062700
     26 H6           1.5370    -1.9640     0.0350 h1         1 9SP       0.056700
     27 H7           2.9040    -0.4240    -1.3690 hc         1 9SP       0.080700
     28 H8           3.2070     0.5990     0.0310 hc         1 9SP       0.080700
     29 H9           4.3850    -1.2930     1.1710 h1         1 9SP       0.011700
     30 H10          4.0130    -2.3550    -0.2040 h1         1 9SP       0.011700
     31 H11          6.1290    -1.4180    -0.3300 ho         1 9SP       0.427000
     32 H12          1.4390     0.0690     1.9780 ho         1 9SP       0.516000
     33 H13         -0.9930    -1.0970     1.1510 h1         1 9SP       0.118700
     34 H14         -1.3560    -1.9330    -1.7000 hn         1 9SP       0.301500
     35 H15         -0.4340    -4.1720    -2.2400 hc         1 9SP       0.050367
     36 H16         -0.9000    -5.4100    -1.0000 hc         1 9SP       0.050367
     37 H17         -2.0770    -4.2820    -1.7930 hc         1 9SP       0.050367
@<TRIPOS>BOND
     1     1     2 1   
     2     2     3 1   
     3     2     4 1   
     4     4     5 1   
     5     4     6 1   
     6     4    10 1   
     7     6     7 1   
     8     6     8 1   
     9     6    22 1   
    10     8     9 1   
    11     8    17 1   
    12     8    23 1   
    13     9    24 1   
    14    10    11 1   
    15    11    12 1   
    16    11    17 1   
    17    11    25 1   
    18    12    13 1   
    19    12    16 1   
    20    12    26 1   
    21    13    14 1   
    22    13    27 1   
    23    13    28 1   
    24    14    15 1   
    25    14    29 1   
    26    14    30 1   
    27    15    31 1   
    28    16    32 1   
    29    17    18 1   
    30    17    33 1   
    31    18    19 1   
    32    18    34 1   
    33    19    20 2   
    34    19    21 1   
    35    21    35 1   
    36    21    36 1   
    37    21    37 1   
@<TRIPOS>SUBSTRUCTURE
     1 9SP         1 TEMP              0 ****  ****    0 ROOT
