@<TRIPOS>MOLECULE
9SP
   37    37     1     0     0
SMALL
abcg2


@<TRIPOS>ATOM
      1 OAC         -1.3420     3.0120    -1.7170 o          1 9SP      -0.693000
      2 CAO         -0.2860     2.6030    -1.2040 c          1 9SP       0.701000
      3 OAE          0.8620     2.6270    -1.6660 o          1 9SP      -0.693000
      4 CAV         -0.4320     2.0260     0.2410 c6         1 9SP       0.253000
      5 FAJ         -0.2070     3.0830     1.1010 f          1 9SP      -0.246000
      6 CAS         -1.8120     1.4570     0.5320 c6         1 9SP       0.121300
      7 FAI         -1.8980     1.1980     1.8990 f          1 9SP      -0.271000
      8 CAR         -2.0060     0.1500    -0.2220 c6         1 9SP       0.128300
      9 OAF         -3.2170    -0.4730     0.1090 oh         1 9SP      -0.649000
     10 OAM          0.5400     1.1010     0.5750 os         1 9SP      -0.463000
     11 CAU          0.4790    -0.1050    -0.1610 c6         1 9SP       0.150300
     12 CAQ          1.6940    -0.9430     0.2240 c3         1 9SP       0.187300
     13 CAP          2.9960    -0.2010    -0.0790 c3         1 9SP      -0.116400
     14 CAK          4.1930    -1.1320    -0.0390 c3         1 9SP       0.161600
     15 OAD          5.3600    -0.3830    -0.3060 oh         1 9SP      -0.659000
     16 OAG          1.6350    -1.3970     1.5570 oh         1 9SP      -0.725000
     17 CAT         -0.8590    -0.8110     0.0990 c6         1 9SP       0.078700
     18 NAL         -0.9540    -2.0050    -0.6990 ns         1 9SP      -0.493900
     19 CAN         -1.3030    -3.2150    -0.2190 c          1 9SP       0.608100
     20 OAB         -1.5320    -3.4320     0.9620 o          1 9SP      -0.599100
     21 CAA         -1.3810    -4.3100    -1.2530 c3         1 9SP      -0.181100
     22 H2          -2.5940     2.1780     0.2830 h1         1 9SP       0.086700
     23 H3          -1.9650     0.3880    -1.2940 h1         1 9SP       0.057700
     24 H4          -3.9270    -0.0440    -0.3780 ho         1 9SP       0.437000
     25 H5           0.5650     0.1010    -1.2380 h1         1 9SP       0.062700
     26 H6           1.6580    -1.8420    -0.3980 h1         1 9SP       0.056700
     27 H7           2.9230     0.2590    -1.0680 hc         1 9SP       0.080700
     28 H8           3.1350     0.6150     0.6360 hc         1 9SP       0.080700
     29 H9           4.2480    -1.6200     0.9420 h1         1 9SP       0.011700
     30 H10          4.0520    -1.9280    -0.7830 h1         1 9SP       0.011700
     31 H11          6.1130    -0.9790    -0.2630 ho         1 9SP       0.427000
     32 H12          1.6770    -0.6310     2.1400 ho         1 9SP       0.516000
     33 H13         -0.9160    -1.1060     1.1470 h1         1 9SP       0.118700
     34 H14         -0.8260    -1.9100    -1.6940 hn         1 9SP       0.301500
     35 H15         -1.1280    -3.9830    -2.2590 hc         1 9SP       0.050367
     36 H16         -0.7080    -5.1200    -0.9720 hc         1 9SP       0.050367
     37 H17         -2.3910    -4.7210    -1.2680 hc         1 9SP       0.050367
@<TRIPOS>BOND
     1     1     2 1   
     2     2     3 1   
     3     2     4 1   
     4     4     5 1   
     5     4     6 1   
     6     4    10 1   
     7     6     7 1   
     8     6     8 1   
     9     6    22 1   
    10     8     9 1   
    11     8    17 1   
    12     8    23 1   
    13     9    24 1   
    14    10    11 1   
    15    11    12 1   
    16    11    17 1   
    17    11    25 1   
    18    12    13 1   
    19    12    16 1   
    20    12    26 1   
    21    13    14 1   
    22    13    27 1   
    23    13    28 1   
    24    14    15 1   
    25    14    29 1   
    26    14    30 1   
    27    15    31 1   
    28    16    32 1   
    29    17    18 1   
    30    17    33 1   
    31    18    19 1   
    32    18    34 1   
    33    19    20 2   
    34    19    21 1   
    35    21    35 1   
    36    21    36 1   
    37    21    37 1   
@<TRIPOS>SUBSTRUCTURE
     1 9SP         1 TEMP              0 ****  ****    0 ROOT
