@<TRIPOS>MOLECULE
9SR
   39    42     1     0     0
SMALL
abcg2


@<TRIPOS>ATOM
      1 N12          2.0410    -0.6700     1.0730 nu         1 9SR      -0.923400
      2 C13          3.0870     0.1120     0.6560 c2         1 9SR       0.838100
      3 C15          1.7470     1.5450    -0.6350 c6         1 9SR       0.405500
      4 C17          0.5570     0.9690     0.1250 c6         1 9SR      -0.118700
      5 C21         -3.2960     1.0540    -0.2480 c3         1 9SR       0.140600
      6 C02         -1.7210    -0.6730     0.7680 c6         1 9SR       0.125300
      7 C03         -1.9350     0.8070     0.3990 c6         1 9SR       0.124000
      8 C05         -0.7910     1.1400    -0.5680 c6         1 9SR       0.200300
      9 C07         -0.7990    -1.0870    -1.3600 c6         1 9SR       0.533000
     10 C09          0.5790    -1.4120    -0.7690 c6         1 9SR       0.129300
     11 C11          0.7480    -0.5120     0.4680 c6         1 9SR       0.254200
     12 C19         -0.3660    -0.8840     1.4590 c6         1 9SR       0.142300
     13 N14          3.0080     1.1580    -0.0780 n2         1 9SR      -0.779900
     14 N18          4.3140    -0.3200     1.1000 nv         1 9SR      -1.018200
     15 O01         -1.7860    -1.4390    -0.4280 os         1 9SR      -0.484000
     16 O04         -1.8010     1.6370     1.5260 oh         1 9SR      -0.709000
     17 O06         -0.8940     0.2700    -1.6900 os         1 9SR      -0.494000
     18 O08         -0.9900    -1.8190    -2.4900 oh         1 9SR      -0.587000
     19 O10          1.6210    -1.1830    -1.6680 oh         1 9SR      -0.699000
     20 O16          1.6070     2.9490    -0.5640 oh         1 9SR      -0.671000
     21 O20         -0.1860    -2.2210     1.8540 oh         1 9SR      -0.714000
     22 O22         -4.2770     0.7880     0.7330 oh         1 9SR      -0.680000
     23 H1           1.7110     1.2370    -1.6870 h2         1 9SR       0.066700
     24 H2           0.5250     1.5170     1.0720 hc         1 9SR       0.104700
     25 H3          -3.3300     2.1020    -0.5740 h1         1 9SR       0.046700
     26 H4          -3.4390     0.4320    -1.1350 h1         1 9SR       0.046700
     27 H5          -2.5240    -1.0390     1.4130 h1         1 9SR       0.097700
     28 H6          -0.8980     2.1560    -0.9550 h1         1 9SR       0.111700
     29 H7           0.5680    -2.4620    -0.4490 h1         1 9SR       0.075700
     30 H8          -0.3010    -0.2120     2.3210 h1         1 9SR       0.071700
     31 H10          4.3310    -0.7740     2.0000 hn         1 9SR       0.462500
     32 H11          5.0410     0.3720     1.0060 hn         1 9SR       0.462500
     33 H12         -2.6310     1.6010     2.0180 ho         1 9SR       0.525000
     34 H13         -1.8310    -1.5790    -2.9020 ho         1 9SR       0.477000
     35 H14          1.5710    -1.8400    -2.3690 ho         1 9SR       0.524000
     36 H15          2.3580     3.3370    -1.0240 ho         1 9SR       0.457000
     37 H16         -0.7010    -2.3790     2.6510 ho         1 9SR       0.512000
     38 H17         -5.1040     1.1920     0.4590 ho         1 9SR       0.456000
     39 H18          2.2690    -1.5980     1.3960 hn         1 9SR       0.489000
@<TRIPOS>BOND
     1     1     2 1   
     2     1    11 1   
     3     1    39 1   
     4     2    13 2   
     5     2    14 1   
     6     3     4 1   
     7     3    13 1   
     8     3    20 1   
     9     3    23 1   
    10     4     8 1   
    11     4    11 1   
    12     4    24 1   
    13     5     7 1   
    14     5    22 1   
    15     5    25 1   
    16     5    26 1   
    17     6     7 1   
    18     6    12 1   
    19     6    15 1   
    20     6    27 1   
    21     7     8 1   
    22     7    16 1   
    23     8    17 1   
    24     8    28 1   
    25     9    10 1   
    26     9    15 1   
    27     9    17 1   
    28     9    18 1   
    29    10    11 1   
    30    10    19 1   
    31    10    29 1   
    32    11    12 1   
    33    12    21 1   
    34    12    30 1   
    35    14    31 1   
    36    14    32 1   
    37    16    33 1   
    38    18    34 1   
    39    19    35 1   
    40    20    36 1   
    41    21    37 1   
    42    22    38 1   
@<TRIPOS>SUBSTRUCTURE
     1 9SR         1 TEMP              0 ****  ****    0 ROOT
