@<TRIPOS>MOLECULE
9SR
   39    42     1     0     0
SMALL
No Charge or Current Charge


@<TRIPOS>ATOM
      1 N12          2.1920    -0.6420     0.9680 nu         1 9SR      -0.923400
      2 C13          3.1980     0.1020     0.5060 c2         1 9SR       0.838100
      3 C15          1.8030     1.4900    -0.7580 c6         1 9SR       0.405500
      4 C17          0.6160     0.9670     0.0660 c6         1 9SR      -0.118700
      5 C21         -3.3330     1.0730    -0.1620 c3         1 9SR       0.140600
      6 C02         -1.6940    -0.6930     0.8020 c6         1 9SR       0.125300
      7 C03         -1.9110     0.8140     0.4370 c6         1 9SR       0.124000
      8 C05         -0.7820     1.1500    -0.5980 c6         1 9SR       0.200300
      9 C07         -0.7970    -1.1370    -1.3870 c6         1 9SR       0.533000
     10 C09          0.6380    -1.4640    -0.8540 c6         1 9SR       0.129300
     11 C11          0.8240    -0.5330     0.4160 c6         1 9SR       0.254200
     12 C19         -0.2840    -0.9400     1.4690 c6         1 9SR       0.142300
     13 N14          3.0720     1.1950    -0.1180 n2         1 9SR      -0.779900
     14 N18          4.1850    -0.1910     1.3090 nv         1 9SR      -1.018200
     15 O01         -1.8010    -1.4740    -0.4200 os         1 9SR      -0.484000
     16 O04         -1.8410     1.6450     1.6110 oh         1 9SR      -0.709000
     17 O06         -0.9180     0.2520    -1.7380 os         1 9SR      -0.494000
     18 O08         -1.0920    -1.8740    -2.5420 oh         1 9SR      -0.587000
     19 O10          1.6650    -1.2950    -1.8760 oh         1 9SR      -0.699000
     20 O16          1.8130     2.8850    -0.7850 oh         1 9SR      -0.671000
     21 O20         -0.1300    -2.3200     1.8910 oh         1 9SR      -0.714000
     22 O22         -4.3380     1.0270     0.8720 oh         1 9SR      -0.680000
     23 H1           1.7870     1.0950    -1.7860 h2         1 9SR       0.066700
     24 H2           0.6300     1.5370     1.0040 hc         1 9SR       0.104700
     25 H3          -3.3360     2.0590    -0.6460 h1         1 9SR       0.046700
     26 H4          -3.5450     0.3290    -0.9420 h1         1 9SR       0.046700
     27 H5          -2.4870    -1.0120     1.4940 h1         1 9SR       0.097700
     28 H6          -0.8970     2.1890    -0.9400 h1         1 9SR       0.111700
     29 H7           0.6350    -2.5130    -0.5230 h1         1 9SR       0.075700
     30 H8          -0.1880    -0.2780     2.3430 h1         1 9SR       0.071700
     31 H10          3.8150    -0.3200     2.2370 hn         1 9SR       0.462500
     32 H11          4.8840     0.5360     1.2660 hn         1 9SR       0.462500
     33 H12         -2.7930     1.7360     1.8750 ho         1 9SR       0.525000
     34 H13         -2.0280    -1.6500    -2.7130 ho         1 9SR       0.477000
     35 H14          1.2480    -1.5870    -2.7220 ho         1 9SR       0.524000
     36 H15          2.7130     3.0570    -0.4370 ho         1 9SR       0.457000
     37 H16         -0.7270    -2.4620     2.6620 ho         1 9SR       0.512000
     38 H17         -5.2150     1.0950     0.4280 ho         1 9SR       0.456000
     39 H18          2.5000    -1.5780     1.1940 hn         1 9SR       0.489000
@<TRIPOS>BOND
     1     1     2 1   
     2     1    11 1   
     3     1    39 1   
     4     2    13 2   
     5     2    14 1   
     6     3     4 1   
     7     3    13 1   
     8     3    20 1   
     9     3    23 1   
    10     4     8 1   
    11     4    11 1   
    12     4    24 1   
    13     5     7 1   
    14     5    22 1   
    15     5    25 1   
    16     5    26 1   
    17     6     7 1   
    18     6    12 1   
    19     6    15 1   
    20     6    27 1   
    21     7     8 1   
    22     7    16 1   
    23     8    17 1   
    24     8    28 1   
    25     9    10 1   
    26     9    15 1   
    27     9    17 1   
    28     9    18 1   
    29    10    11 1   
    30    10    19 1   
    31    10    29 1   
    32    11    12 1   
    33    12    21 1   
    34    12    30 1   
    35    14    31 1   
    36    14    32 1   
    37    16    33 1   
    38    18    34 1   
    39    19    35 1   
    40    20    36 1   
    41    21    37 1   
    42    22    38 1   
@<TRIPOS>SUBSTRUCTURE
     1 9SR         1 TEMP              0 ****  ****    0 ROOT
