@<TRIPOS>MOLECULE
9SS
   45    48     1     0     0
SMALL
abcg2


@<TRIPOS>ATOM
      1 N3          17.0880   -30.4700   -29.4780 nu         1 9SS      -0.889100
      2 C4          17.6100   -30.1860   -28.2710 ca         1 9SS       0.396900
      3 N2          16.7500   -30.1300   -27.2440 nb         1 9SS      -0.245000
      4 C7          17.4310   -31.4900   -31.7060 cx         1 9SS      -0.113400
      5 C6          18.7110   -31.6770   -30.9570 cx         1 9SS      -0.113400
      6 C9          17.3910   -28.2090   -31.6520 ca         1 9SS       0.127400
      7 C13         19.1300   -28.3080   -22.3260 c6         1 9SS       0.092000
      8 C8          18.2970   -29.1330   -31.1480 ca         1 9SS      -0.176300
      9 N5          19.9870   -27.4870   -31.4670 nb         1 9SS      -0.174500
     10 C18         15.5420   -26.4330   -23.6000 c1         1 9SS       0.296900
     11 C16         16.4910   -27.4610   -23.1970 c6         1 9SS      -0.021600
     12 C1          17.2550   -29.8280   -26.0670 ca         1 9SS       0.189900
     13 C2          18.6110   -29.5790   -25.8610 ca         1 9SS      -0.331600
     14 C3          19.4100   -29.7160   -26.9910 ca         1 9SS       0.189900
     15 N1          18.9300   -29.9970   -28.1860 nb         1 9SS      -0.245000
     16 C5          17.8530   -30.4790   -30.6820 cx         1 9SS       0.235500
     17 N4          17.7490   -26.9950   -32.0460 nb         1 9SS      -0.174500
     18 C10         19.0350   -26.6950   -31.9320 ca         1 9SS       0.119900
     19 C11         19.6120   -28.6990   -31.0730 ca         1 9SS       0.127400
     20 C12         19.2400   -29.3440   -24.5350 c          1 9SS       0.643700
     21 O1          20.2450   -29.9740   -24.2350 o          1 9SS      -0.591100
     22 N6          18.6630   -28.4490   -23.6980 n          1 9SS      -0.414800
     23 C14         17.9470   -28.3470   -21.3690 c6         1 9SS      -0.094400
     24 C15         16.8980   -27.3010   -21.7260 c6         1 9SS      -0.068400
     25 C17         17.7350   -27.4150   -24.0980 c6         1 9SS       0.110000
     26 N7          14.7940   -25.6210   -23.9240 n1         1 9SS      -0.449000
     27 H3          16.0840   -30.5270   -29.5390 hn         1 9SS       0.516000
     28 H7          17.4790   -31.1950   -32.7460 hc         1 9SS       0.084200
     29 H6          16.5930   -32.1300   -31.4580 hc         1 9SS       0.084200
     30 H5          18.7500   -32.4410   -30.1930 hc         1 9SS       0.084200
     31 H4          19.6420   -31.5260   -31.4880 hc         1 9SS       0.084200
     32 H12         19.8320   -29.1070   -22.1020 h1         1 9SS       0.062700
     33 H11         19.6670   -27.3590   -22.2260 h1         1 9SS       0.062700
     34 H17         15.9920   -28.4260   -23.3320 hc         1 9SS       0.080700
     35 H1          16.5530   -29.8040   -25.2390 h4         1 9SS       0.031600
     36 H2          20.4840   -29.5750   -26.9230 h4         1 9SS       0.031600
     37 H9          19.3350   -25.7030   -32.2530 h5         1 9SS       0.051100
     38 H10         20.3860   -29.3530   -30.6880 h4         1 9SS       0.030600
     39 H14         17.4980   -29.3440   -21.3920 hc         1 9SS       0.054700
     40 H13         18.3050   -28.1780   -20.3520 hc         1 9SS       0.054700
     41 H15         17.3030   -26.2970   -21.5730 hc         1 9SS       0.055200
     42 H16         16.0220   -27.3990   -21.0830 hc         1 9SS       0.055200
     43 H19         18.2180   -26.4380   -23.9840 h1         1 9SS       0.060200
     44 H18         17.4650   -27.5120   -25.1460 h1         1 9SS       0.060200
     45 H8          16.3390   -28.4660   -31.7440 h4         1 9SS       0.030600
@<TRIPOS>BOND
     1     1     2 1   
     2     1    16 1   
     3     1    27 1   
     4     2     3 ar  
     5     2    15 ar  
     6     3    12 ar  
     7     4     5 1   
     8     4    16 1   
     9     4    28 1   
    10     4    29 1   
    11     5    16 1   
    12     5    30 1   
    13     5    31 1   
    14     6     8 ar  
    15     6    17 ar  
    16     6    45 1   
    17     7    22 1   
    18     7    23 1   
    19     7    32 1   
    20     7    33 1   
    21     8    16 1   
    22     8    19 ar  
    23     9    18 ar  
    24     9    19 ar  
    25    10    11 1   
    26    10    26 3   
    27    11    24 1   
    28    11    25 1   
    29    11    34 1   
    30    12    13 ar  
    31    12    35 1   
    32    13    14 ar  
    33    13    20 1   
    34    14    15 ar  
    35    14    36 1   
    36    17    18 ar  
    37    18    37 1   
    38    19    38 1   
    39    20    21 2   
    40    20    22 1   
    41    22    25 1   
    42    23    24 1   
    43    23    39 1   
    44    23    40 1   
    45    24    41 1   
    46    24    42 1   
    47    25    43 1   
    48    25    44 1   
@<TRIPOS>SUBSTRUCTURE
     1 9SS         1 TEMP              0 ****  ****    0 ROOT
