@<TRIPOS>MOLECULE
9SS
   45    48     1     0     0
SMALL
No Charge or Current Charge


@<TRIPOS>ATOM
      1 N3          17.2500   -30.4230   -29.5860 nu         1 9SS      -0.889100
      2 C4          17.7780   -30.1430   -28.3320 ca         1 9SS       0.396900
      3 N2          16.8750   -30.0660   -27.3410 nb         1 9SS      -0.245000
      4 C7          17.5670   -31.6380   -31.7550 cx         1 9SS      -0.113400
      5 C6          18.8950   -31.6710   -31.0400 cx         1 9SS      -0.113400
      6 C9          17.2420   -28.3970   -32.0330 ca         1 9SS       0.127400
      7 C13         18.8580   -28.7430   -22.1280 c6         1 9SS       0.092000
      8 C8          18.2360   -29.1420   -31.3700 ca         1 9SS      -0.176300
      9 N5          19.7590   -27.3100   -31.7200 nb         1 9SS      -0.174500
     10 C18         15.7950   -25.9410   -23.3360 c1         1 9SS       0.296900
     11 C16         16.4870   -27.1870   -22.9500 c6         1 9SS      -0.021600
     12 C1          17.3510   -29.7880   -26.1130 ca         1 9SS       0.189900
     13 C2          18.7230   -29.5760   -25.8830 ca         1 9SS      -0.331600
     14 C3          19.5810   -29.7060   -26.9880 ca         1 9SS       0.189900
     15 N1          19.1100   -29.9820   -28.2190 nb         1 9SS      -0.245000
     16 C5          17.9530   -30.5100   -30.8320 cx         1 9SS       0.235500
     17 N4          17.4880   -27.1640   -32.5200 nb         1 9SS      -0.174500
     18 C10         18.7360   -26.6820   -32.3380 ca         1 9SS       0.119900
     19 C11         19.5030   -28.5430   -31.2360 ca         1 9SS       0.127400
     20 C12         19.2790   -29.3000   -24.5220 c          1 9SS       0.643700
     21 O1          20.4120   -29.6600   -24.2350 o          1 9SS      -0.591100
     22 N6          18.4250   -28.7250   -23.5560 n          1 9SS      -0.414800
     23 C14         17.7100   -28.4480   -21.1340 c6         1 9SS      -0.094400
     24 C15         16.9850   -27.1330   -21.4860 c6         1 9SS      -0.068400
     25 C17         17.6600   -27.4900   -23.9150 c6         1 9SS       0.110000
     26 N7          15.2710   -24.9530   -23.6640 n1         1 9SS      -0.449000
     27 H3          16.2350   -30.5260   -29.5790 hn         1 9SS       0.516000
     28 H7          17.5730   -31.4420   -32.8230 hc         1 9SS       0.084200
     29 H6          16.7980   -32.3330   -31.4240 hc         1 9SS       0.084200
     30 H5          19.0170   -32.3790   -30.2250 hc         1 9SS       0.084200
     31 H4          19.7910   -31.4980   -31.6310 hc         1 9SS       0.084200
     32 H12         19.2860   -29.7270   -21.8870 h1         1 9SS       0.062700
     33 H11         19.6570   -27.9990   -21.9910 h1         1 9SS       0.062700
     34 H17         15.7410   -27.9880   -23.0440 hc         1 9SS       0.080700
     35 H1          16.6180   -29.7510   -25.3080 h4         1 9SS       0.031600
     36 H2          20.6590   -29.5790   -26.8980 h4         1 9SS       0.031600
     37 H9          18.9380   -25.6870   -32.7300 h5         1 9SS       0.051100
     38 H10         20.3260   -29.0520   -30.7370 h4         1 9SS       0.030600
     39 H14         16.9930   -29.2800   -21.1500 hc         1 9SS       0.054700
     40 H13         18.1080   -28.3970   -20.1120 hc         1 9SS       0.054700
     41 H15         17.6700   -26.2830   -21.3450 hc         1 9SS       0.055200
     42 H16         16.1420   -26.9780   -20.7970 hc         1 9SS       0.055200
     43 H19         18.3610   -26.6420   -23.9010 h1         1 9SS       0.060200
     44 H18         17.2740   -27.5500   -24.9410 h1         1 9SS       0.060200
     45 H8          16.2370   -28.7900   -32.1760 h4         1 9SS       0.030600
@<TRIPOS>BOND
     1     1     2 1   
     2     1    16 1   
     3     1    27 1   
     4     2     3 ar  
     5     2    15 ar  
     6     3    12 ar  
     7     4     5 1   
     8     4    16 1   
     9     4    28 1   
    10     4    29 1   
    11     5    16 1   
    12     5    30 1   
    13     5    31 1   
    14     6     8 ar  
    15     6    17 ar  
    16     6    45 1   
    17     7    22 1   
    18     7    23 1   
    19     7    32 1   
    20     7    33 1   
    21     8    16 1   
    22     8    19 ar  
    23     9    18 ar  
    24     9    19 ar  
    25    10    11 1   
    26    10    26 3   
    27    11    24 1   
    28    11    25 1   
    29    11    34 1   
    30    12    13 ar  
    31    12    35 1   
    32    13    14 ar  
    33    13    20 1   
    34    14    15 ar  
    35    14    36 1   
    36    17    18 ar  
    37    18    37 1   
    38    19    38 1   
    39    20    21 2   
    40    20    22 1   
    41    22    25 1   
    42    23    24 1   
    43    23    39 1   
    44    23    40 1   
    45    24    41 1   
    46    24    42 1   
    47    25    43 1   
    48    25    44 1   
@<TRIPOS>SUBSTRUCTURE
     1 9SS         1 TEMP              0 ****  ****    0 ROOT
