@<TRIPOS>MOLECULE
9ST
   44    46     1     0     0
SMALL
No Charge or Current Charge


@<TRIPOS>ATOM
      1 C20          4.8150    -1.1100     0.5390 ca         1 9ST      -0.104000
      2 C22          5.9440    -1.9350     0.3940 ca         1 9ST      -0.108500
      3 C24          6.7310    -1.8540    -0.7660 ca         1 9ST      -0.106000
      4 C26          6.3870    -0.9480    -1.7830 ca         1 9ST      -0.108500
      5 C28          5.2580    -0.1230    -1.6390 ca         1 9ST      -0.104000
      6 N05          2.1520     2.5330     1.0450 n3         1 9ST      -0.718600
      7 C06          0.8800     1.7510     1.1070 c6         1 9ST       0.139800
      8 C09          0.6930     0.8230    -0.1350 c6         1 9ST       0.230500
      9 C11          1.9150    -0.1130    -0.2820 c6         1 9ST      -0.082400
     10 C14          3.2310     0.7100    -0.3290 c6         1 9ST      -0.014400
     11 C16          3.3350     1.6340     0.9180 c6         1 9ST       0.165800
     12 C19          4.4630    -0.1960    -0.4770 ca         1 9ST      -0.082300
     13 N30         -0.5350     0.0070    -0.0130 nu         1 9ST      -0.806200
     14 C32         -1.8280     0.4240    -0.3040 cc         1 9ST       0.175400
     15 C33         -2.0960     1.7810    -0.7580 cc         1 9ST       0.299500
     16 N35         -3.2860     2.2980    -1.0670 nd         1 9ST      -0.392300
     17 N36         -4.3330     1.3840    -0.9130 n          1 9ST      -0.132800
     18 C37         -5.6630     1.9370    -1.2500 c3         1 9ST       0.098300
     19 C41         -4.2620     0.0300    -0.4840 c          1 9ST       0.571200
     20 O42         -5.2500    -0.6880    -0.3830 o          1 9ST      -0.533000
     21 C43         -2.8920    -0.4380    -0.1680 cd         1 9ST      -0.300500
     22 Br          -2.6900    -2.2360     0.4160 br         1 9ST      -0.052700
     23 H1           4.2150    -1.1860     1.4430 ha         1 9ST       0.111000
     24 H2           6.2090    -2.6370     1.1820 ha         1 9ST       0.114500
     25 H3           7.6050    -2.4930    -0.8780 ha         1 9ST       0.115000
     26 H4           6.9950    -0.8850    -2.6830 ha         1 9ST       0.114500
     27 H5           5.0040     0.5740    -2.4350 ha         1 9ST       0.111000
     28 H6           2.3330     2.9530     3.1300 h1         1 9ST       0.034700
     29 H7           3.1970     4.0860     2.0630 h1         1 9ST       0.034700
     30 H8           1.4290     4.1710     2.2000 h1         1 9ST       0.034700
     31 H11          0.0220     2.4350     1.1690 h1         1 9ST       0.041200
     32 H12          0.6470     1.4550    -1.0350 h1         1 9ST       0.075700
     33 H13          1.9460    -0.8200     0.5580 hc         1 9ST       0.054700
     34 H14          1.8190    -0.7120    -1.1980 hc         1 9ST       0.054700
     35 H15          3.1790     1.3660    -1.2090 hc         1 9ST       0.066700
     36 H16          4.2550     2.2320     0.8340 h1         1 9ST       0.040700
     37 H17          3.4360     1.0170     1.8230 h1         1 9ST       0.040700
     38 H18         -1.3000     2.5000    -0.8810 h4         1 9ST       0.049800
     39 H19         -5.5810     2.9850    -1.5660 h1         1 9ST       0.057700
     40 H20         -6.1070     1.3560    -2.0680 h1         1 9ST       0.057700
     41 H21         -6.3180     1.8830    -0.3720 h1         1 9ST       0.057700
     42 H9          -0.4500    -0.9640     0.2970 hn         1 9ST       0.503000
     43 H10          0.8620     1.1340     2.0180 h1         1 9ST       0.041200
     44 C01          2.2850     3.4840     2.1700 c3         1 9ST       0.155100
@<TRIPOS>BOND
     1     1     2 ar  
     2     1    12 ar  
     3     1    23 1   
     4     2     3 ar  
     5     2    24 1   
     6     3     4 ar  
     7     3    25 1   
     8     4     5 ar  
     9     4    26 1   
    10     5    12 ar  
    11     5    27 1   
    12     6     7 1   
    13     6    11 1   
    14     6    44 1   
    15     7     8 1   
    16     7    31 1   
    17     7    43 1   
    18     8     9 1   
    19     8    13 1   
    20     8    32 1   
    21     9    10 1   
    22     9    33 1   
    23     9    34 1   
    24    10    11 1   
    25    10    12 1   
    26    10    35 1   
    27    11    36 1   
    28    11    37 1   
    29    13    14 1   
    30    13    42 1   
    31    14    15 1   
    32    14    21 2   
    33    15    16 2   
    34    15    38 1   
    35    16    17 1   
    36    17    18 1   
    37    17    19 1   
    38    18    39 1   
    39    18    40 1   
    40    18    41 1   
    41    19    20 2   
    42    19    21 1   
    43    21    22 1   
    44    28    44 1   
    45    29    44 1   
    46    30    44 1   
@<TRIPOS>SUBSTRUCTURE
     1 9ST         1 TEMP              0 ****  ****    0 ROOT
