@<TRIPOS>MOLECULE
9ST
   44    46     1     0     0
SMALL
abcg2


@<TRIPOS>ATOM
      1 C20          4.7150    -1.1720     0.4680 ca         1 9ST      -0.104000
      2 C22          5.8680    -1.9360     0.3670 ca         1 9ST      -0.108500
      3 C24          6.7580    -1.7250    -0.6790 ca         1 9ST      -0.106000
      4 C26          6.4840    -0.7440    -1.6210 ca         1 9ST      -0.108500
      5 C28          5.3280     0.0200    -1.5140 ca         1 9ST      -0.104000
      6 N05          2.0680     2.4230     0.9320 n3         1 9ST      -0.718600
      7 C06          0.8540     1.6430     1.0260 c6         1 9ST       0.139800
      8 C09          0.6950     0.7440    -0.1990 c6         1 9ST       0.230500
      9 C11          1.9060    -0.1670    -0.3450 c6         1 9ST      -0.082400
     10 C14          3.1870     0.6680    -0.3640 c6         1 9ST      -0.014400
     11 C16          3.2410     1.5750     0.8660 c6         1 9ST       0.165800
     12 C19          4.4270    -0.1820    -0.4720 ca         1 9ST      -0.082300
     13 N30         -0.5060    -0.0650    -0.1080 nu         1 9ST      -0.806200
     14 C32         -1.7580     0.3690    -0.3180 cc         1 9ST       0.175400
     15 C33         -2.0010     1.6860    -0.8430 cc         1 9ST       0.299500
     16 N35         -3.1770     2.1560    -1.0760 nd         1 9ST      -0.392300
     17 N36         -4.2410     1.4200    -0.8350 n          1 9ST      -0.132800
     18 C37         -5.5310     2.0270    -1.1170 c3         1 9ST       0.098300
     19 C41         -4.2110     0.1250    -0.3380 c          1 9ST       0.571200
     20 O42         -5.2560    -0.4860    -0.1510 o          1 9ST      -0.533000
     21 C43         -2.8960    -0.3760    -0.0840 cd         1 9ST      -0.300500
     22 BR          -2.8050    -2.1200     0.5940 br         1 9ST      -0.052700
     23 H1           4.0330    -1.3510     1.2910 ha         1 9ST       0.111000
     24 H2           6.0730    -2.6990     1.1080 ha         1 9ST       0.114500
     25 H3           7.6580    -2.3220    -0.7580 ha         1 9ST       0.115000
     26 H4           7.1710    -0.5690    -2.4390 ha         1 9ST       0.114500
     27 H5           5.1240     0.7860    -2.2540 ha         1 9ST       0.111000
     28 H6           2.2090     2.9210     3.0050 h1         1 9ST       0.034700
     29 H7           3.0570     3.9980     1.8840 h1         1 9ST       0.034700
     30 H8           1.2980     4.0490     1.9890 h1         1 9ST       0.034700
     31 H11          0.0040     2.3280     1.1000 h1         1 9ST       0.041200
     32 H12          0.6390     1.3690    -1.0940 h1         1 9ST       0.075700
     33 H13          1.9310    -0.8680     0.4970 hc         1 9ST       0.054700
     34 H14          1.8240    -0.7610    -1.2580 hc         1 9ST       0.054700
     35 H15          3.1510     1.3200    -1.2430 hc         1 9ST       0.066700
     36 H16          4.1300     2.2090     0.8090 h1         1 9ST       0.040700
     37 H17          3.3470     0.9550     1.7750 h1         1 9ST       0.040700
     38 H18         -1.1860     2.3580    -1.0730 h4         1 9ST       0.049800
     39 H19         -5.3510     3.0400    -1.4590 h1         1 9ST       0.057700
     40 H20         -6.0600     1.4730    -1.8900 h1         1 9ST       0.057700
     41 H21         -6.1480     2.0540    -0.2200 h1         1 9ST       0.057700
     42 H9          -0.3970    -0.9650     0.3340 hn         1 9ST       0.503000
     43 H10          0.8330     1.0100     1.9320 h1         1 9ST       0.041200
     44 C01          2.1630     3.3850     2.0070 c3         1 9ST       0.155100
@<TRIPOS>BOND
     1     1     2 ar  
     2     1    12 ar  
     3     1    23 1   
     4     2     3 ar  
     5     2    24 1   
     6     3     4 ar  
     7     3    25 1   
     8     4     5 ar  
     9     4    26 1   
    10     5    12 ar  
    11     5    27 1   
    12     6     7 1   
    13     6    11 1   
    14     6    44 1   
    15     7     8 1   
    16     7    31 1   
    17     7    43 1   
    18     8     9 1   
    19     8    13 1   
    20     8    32 1   
    21     9    10 1   
    22     9    33 1   
    23     9    34 1   
    24    10    11 1   
    25    10    12 1   
    26    10    35 1   
    27    11    36 1   
    28    11    37 1   
    29    13    14 1   
    30    13    42 1   
    31    14    15 1   
    32    14    21 2   
    33    15    16 2   
    34    15    38 1   
    35    16    17 1   
    36    17    18 1   
    37    17    19 1   
    38    18    39 1   
    39    18    40 1   
    40    18    41 1   
    41    19    20 2   
    42    19    21 1   
    43    21    22 1   
    44    28    44 1   
    45    29    44 1   
    46    30    44 1   
@<TRIPOS>SUBSTRUCTURE
     1 9ST         1 TEMP              0 ****  ****    0 ROOT
