@<TRIPOS>MOLECULE
9SU
   49    53     1     0     0
SMALL
abcg2


@<TRIPOS>ATOM
      1 C10          2.6900   -11.4710    -7.5890 c5         1 9SU       0.010300
      2 C11          2.4940   -12.6450    -6.6390 ca         1 9SU      -0.143300
      3 C12          2.5440   -14.0160    -6.8190 ca         1 9SU       0.179000
      4 C14          2.2840   -14.8980    -5.7680 ca         1 9SU      -0.146000
      5 C15          1.9470   -14.3830    -4.5210 ca         1 9SU      -0.063000
      6 C01          3.3660   -13.5190   -15.0540 c6         1 9SU      -0.001200
      7 C02          3.2560   -12.7360   -13.7730 cc         1 9SU      -0.293400
      8 C03          1.9550   -12.3660   -13.3060 c          1 9SU       0.572200
      9 C06          3.0740   -11.2690   -11.4400 cc         1 9SU       0.723800
     10 C08          4.0920   -10.3890    -9.4130 c6         1 9SU       0.210800
     11 C09          4.0160   -11.5060    -8.3710 c6         1 9SU      -0.101900
     12 C16          1.8480   -13.0110    -4.3090 ca         1 9SU      -0.159000
     13 C17          2.1110   -12.1580    -5.3770 ca         1 9SU       0.281000
     14 C19          2.6750   -10.2700    -6.5940 c5         1 9SU       0.183800
     15 C20          1.4920   -11.3930    -8.5670 c6         1 9SU      -0.101900
     16 C21          1.6840   -10.3070    -9.6240 c6         1 9SU       0.210800
     17 C23          4.3410   -12.3700   -13.0120 cd         1 9SU       0.228400
     18 C24          5.7410   -12.7500   -13.4180 c6         1 9SU      -0.034200
     19 C25          5.7910   -13.8370   -14.4900 c6         1 9SU      -0.073400
     20 C26          4.7920   -13.5350   -15.6030 c6         1 9SU      -0.075400
     21 N05          1.9480   -11.6250   -12.1230 ns         1 9SU      -0.432400
     22 N07          2.9520   -10.4940   -10.3300 nh         1 9SU      -0.738600
     23 N18          1.9900   -10.7790    -5.4010 nu         1 9SU      -0.921200
     24 N22          4.2620   -11.6470   -11.8610 nd         1 9SU      -0.725300
     25 CL1          2.9120   -14.7210    -8.3890 cl         1 9SU      -0.213000
     26 H1           2.3430   -15.9640    -5.9330 ha         1 9SU       0.133000
     27 H2           1.7520   -15.0670    -3.7040 ha         1 9SU       0.119000
     28 H3           2.6770   -13.0990   -15.7910 hc         1 9SU       0.053700
     29 H4           3.0260   -14.5480   -14.8840 hc         1 9SU       0.053700
     30 H5           5.0130   -10.4520    -9.9810 h1         1 9SU       0.065450
     31 H6           4.0430    -9.4040    -8.9450 h1         1 9SU       0.065450
     32 H7           4.1180   -12.4570    -8.8910 hc         1 9SU       0.067450
     33 H8           4.8520   -11.4220    -7.6730 hc         1 9SU       0.067450
     34 H9           1.5680   -12.6150    -3.3410 ha         1 9SU       0.122000
     35 H10          3.7020    -9.9720    -6.3560 h1         1 9SU       0.046700
     36 H11          0.5750   -11.2030    -8.0050 hc         1 9SU       0.067450
     37 H12          1.3770   -12.3560    -9.0680 hc         1 9SU       0.067450
     38 H13          1.7260    -9.3190    -9.1610 h1         1 9SU       0.065450
     39 H14          0.8430   -10.2740   -10.3110 h1         1 9SU       0.065450
     40 H15          6.2840   -13.0520   -12.5200 hc         1 9SU       0.061700
     41 H16          6.2370   -11.8420   -13.7800 hc         1 9SU       0.061700
     42 H17          5.5490   -14.8060   -14.0410 hc         1 9SU       0.043700
     43 H18          6.8060   -13.9140   -14.8860 hc         1 9SU       0.043700
     44 H19          4.8710   -14.2720   -16.4050 hc         1 9SU       0.042200
     45 H20          5.0270   -12.5590   -16.0400 hc         1 9SU       0.042200
     46 H21          1.0320   -11.3620   -11.7900 hn         1 9SU       0.326500
     47 H22          2.1550    -9.4000    -6.9930 h1         1 9SU       0.046700
     48 H23          2.1560   -10.2850    -4.5350 hn         1 9SU       0.464000
     49 O04          0.8730   -12.6420   -13.8410 o          1 9SU      -0.568000
@<TRIPOS>BOND
     1     1     2 1   
     2     1    11 1   
     3     1    14 1   
     4     1    15 1   
     5     2     3 ar  
     6     2    13 ar  
     7     3     4 ar  
     8     3    25 1   
     9     4     5 ar  
    10     4    26 1   
    11     5    12 ar  
    12     5    27 1   
    13     6     7 1   
    14     6    20 1   
    15     6    28 1   
    16     6    29 1   
    17     7     8 1   
    18     7    17 2   
    19     8    21 1   
    20     8    49 2   
    21     9    21 1   
    22     9    22 1   
    23     9    24 2   
    24    10    11 1   
    25    10    22 1   
    26    10    30 1   
    27    10    31 1   
    28    11    32 1   
    29    11    33 1   
    30    12    13 ar  
    31    12    34 1   
    32    13    23 1   
    33    14    23 1   
    34    14    35 1   
    35    14    47 1   
    36    15    16 1   
    37    15    36 1   
    38    15    37 1   
    39    16    22 1   
    40    16    38 1   
    41    16    39 1   
    42    17    18 1   
    43    17    24 1   
    44    18    19 1   
    45    18    40 1   
    46    18    41 1   
    47    19    20 1   
    48    19    42 1   
    49    19    43 1   
    50    20    44 1   
    51    20    45 1   
    52    21    46 1   
    53    23    48 1   
@<TRIPOS>SUBSTRUCTURE
     1 9SU         1 TEMP              0 ****  ****    0 ROOT
