@<TRIPOS>MOLECULE
9SU
   49    53     1     0     0
SMALL
No Charge or Current Charge


@<TRIPOS>ATOM
      1 C10          2.5860   -11.5780    -7.5130 c5         1 9SU       0.010300
      2 C11          2.5610   -12.6330    -6.4100 ca         1 9SU      -0.143300
      3 C12          2.9090   -14.0050    -6.4430 ca         1 9SU       0.179000
      4 C14          2.8080   -14.7670    -5.2610 ca         1 9SU      -0.146000
      5 C15          2.3550   -14.1800    -4.0640 ca         1 9SU      -0.063000
      6 C01          3.4910   -12.9370   -15.4150 c6         1 9SU      -0.001200
      7 C02          3.3770   -12.3450   -14.0150 cc         1 9SU      -0.293400
      8 C03          2.1620   -11.5680   -13.7550 c          1 9SU       0.572200
      9 C06          3.0480   -11.3000   -11.5710 cc         1 9SU       0.723800
     10 C08          3.8960   -10.4180    -9.3910 c6         1 9SU       0.210800
     11 C09          3.9420   -11.4940    -8.2810 c6         1 9SU      -0.101900
     12 C16          1.9780   -12.8260    -4.0540 ca         1 9SU      -0.159000
     13 C17          2.0810   -12.0890    -5.2380 ca         1 9SU       0.281000
     14 C19          2.3330   -10.2650    -6.6390 c5         1 9SU       0.183800
     15 C20          1.4670   -11.8500    -8.5630 c6         1 9SU      -0.101900
     16 C21          1.4550   -10.8000    -9.7030 c6         1 9SU       0.210800
     17 C23          4.3440   -12.5430   -13.0350 cd         1 9SU       0.228400
     18 C24          5.6090   -13.3410   -13.3040 c6         1 9SU      -0.034200
     19 C25          5.5010   -14.2330   -14.5610 c6         1 9SU      -0.073400
     20 C26          4.9220   -13.4230   -15.7370 c6         1 9SU      -0.075400
     21 N05          2.1070   -11.0900   -12.5070 ns         1 9SU      -0.432400
     22 N07          2.7960   -10.7180   -10.3520 nh         1 9SU      -0.738600
     23 N18          1.7020   -10.7710    -5.3810 nu         1 9SU      -0.921200
     24 N22          4.1640   -11.9800   -11.7710 nd         1 9SU      -0.725300
     25 Cl1          3.4250   -14.8360    -7.9090 cl         1 9SU      -0.213000
     26 H1           3.0760   -15.8200    -5.2770 ha         1 9SU       0.133000
     27 H2           2.2780   -14.7760    -3.1570 ha         1 9SU       0.119000
     28 H3           3.1880   -12.2100   -16.1820 hc         1 9SU       0.053700
     29 H4           2.7970   -13.7840   -15.5140 hc         1 9SU       0.053700
     30 H5           4.8720   -10.3720    -9.8970 h1         1 9SU       0.065450
     31 H6           3.7370    -9.4280    -8.9390 h1         1 9SU       0.065450
     32 H7           4.1950   -12.4480    -8.7530 hc         1 9SU       0.067450
     33 H8           4.7600   -11.2710    -7.5830 hc         1 9SU       0.067450
     34 H9           1.6010   -12.3640    -3.1460 ha         1 9SU       0.122000
     35 H10          3.2920    -9.7780    -6.4090 h1         1 9SU       0.046700
     36 H11          0.4870   -11.8620    -8.0680 hc         1 9SU       0.067450
     37 H12          1.6000   -12.8470    -9.0020 hc         1 9SU       0.067450
     38 H13          1.1740    -9.8160    -9.3000 h1         1 9SU       0.065450
     39 H14          0.6690   -11.0790   -10.4200 h1         1 9SU       0.065450
     40 H15          5.8580   -13.9670   -12.4370 hc         1 9SU       0.061700
     41 H16          6.4510   -12.6470   -13.4270 hc         1 9SU       0.061700
     42 H17          4.8550   -15.0970   -14.3520 hc         1 9SU       0.043700
     43 H18          6.4890   -14.6330   -14.8240 hc         1 9SU       0.043700
     44 H19          4.9120   -14.0340   -16.6500 hc         1 9SU       0.042200
     45 H20          5.5700   -12.5590   -15.9450 hc         1 9SU       0.042200
     46 H21          1.3150   -10.5180   -12.2730 hn         1 9SU       0.326500
     47 H22          1.7130    -9.5180    -7.1540 h1         1 9SU       0.046700
     48 H23          1.6850   -10.2110    -4.5250 hn         1 9SU       0.464000
     49 O04          1.2700   -11.3530   -14.5590 o          1 9SU      -0.568000
@<TRIPOS>BOND
     1     1     2 1   
     2     1    11 1   
     3     1    14 1   
     4     1    15 1   
     5     2     3 ar  
     6     2    13 ar  
     7     3     4 ar  
     8     3    25 1   
     9     4     5 ar  
    10     4    26 1   
    11     5    12 ar  
    12     5    27 1   
    13     6     7 1   
    14     6    20 1   
    15     6    28 1   
    16     6    29 1   
    17     7     8 1   
    18     7    17 2   
    19     8    21 1   
    20     8    49 2   
    21     9    21 1   
    22     9    22 1   
    23     9    24 2   
    24    10    11 1   
    25    10    22 1   
    26    10    30 1   
    27    10    31 1   
    28    11    32 1   
    29    11    33 1   
    30    12    13 ar  
    31    12    34 1   
    32    13    23 1   
    33    14    23 1   
    34    14    35 1   
    35    14    47 1   
    36    15    16 1   
    37    15    36 1   
    38    15    37 1   
    39    16    22 1   
    40    16    38 1   
    41    16    39 1   
    42    17    18 1   
    43    17    24 1   
    44    18    19 1   
    45    18    40 1   
    46    18    41 1   
    47    19    20 1   
    48    19    42 1   
    49    19    43 1   
    50    20    44 1   
    51    20    45 1   
    52    21    46 1   
    53    23    48 1   
@<TRIPOS>SUBSTRUCTURE
     1 9SU         1 TEMP              0 ****  ****    0 ROOT
