@<TRIPOS>MOLECULE
9SV
   46    49     1     0     0
SMALL
No Charge or Current Charge


@<TRIPOS>ATOM
      1 C1           3.8340    -0.3260    -0.6350 c6         1 9SV       0.143800
      2 C2           2.4430    -0.9210    -1.0200 c6         1 9SV       0.232300
      3 C3           1.7750    -0.7830     1.3960 c6         1 9SV       0.232300
      4 C4           3.1960    -0.2190     1.7250 c6         1 9SV       0.143800
      5 C6          -0.7210    -0.2060    -1.2150 cc         1 9SV      -0.187600
      6 C13         -2.9860     2.8720    -1.6340 ca         1 9SV      -0.068000
      7 C14          0.2260     1.7120     0.1100 c          1 9SV       0.563900
      8 O1           1.0830     2.1980     0.8430 o          1 9SV      -0.501100
      9 C5           0.2960     0.2820    -0.3870 cd         1 9SV       0.179800
     10 N1           1.3800    -0.5660    -0.0320 nh         1 9SV      -0.681400
     11 N            4.2450    -0.6720     0.7600 n3         1 9SV      -0.714600
     12 C            5.5910    -0.1630     1.1010 c3         1 9SV       0.152100
     13 C9          -0.9420     2.5600    -0.3350 ca         1 9SV      -0.142600
     14 C10         -1.0620     3.8920     0.1280 ca         1 9SV      -0.065000
     15 C11         -2.1320     4.7010    -0.2850 ca         1 9SV      -0.104000
     16 C12         -3.0940     4.1910    -1.1680 ca         1 9SV      -0.094000
     17 C8          -1.9140     2.0450    -1.2240 ca         1 9SV      -0.119600
     18 C7          -1.8270     0.6290    -1.7350 c          1 9SV       0.593900
     19 O           -2.6550     0.1920    -2.5270 o          1 9SV      -0.501100
     20 H1           4.5800    -0.6940    -1.3550 h1         1 9SV       0.045700
     21 H2           3.7870     0.7670    -0.7540 h1         1 9SV       0.045700
     22 H3           2.1700    -0.5650    -2.0240 h1         1 9SV       0.059950
     23 H4           2.5330    -2.0150    -1.0820 h1         1 9SV       0.059950
     24 H5           1.7750    -1.8610     1.6090 h1         1 9SV       0.059950
     25 H6           1.0400    -0.3280     2.0750 h1         1 9SV       0.059950
     26 H7           3.1450     0.8790     1.7300 h1         1 9SV       0.045700
     27 H8           3.4610    -0.5260     2.7470 h1         1 9SV       0.045700
     28 H10         -3.7440     2.4940    -2.3180 ha         1 9SV       0.141000
     29 H12          5.6180     0.9340     1.0590 h1         1 9SV       0.033033
     30 H13          5.8770    -0.4760     2.1140 h1         1 9SV       0.033033
     31 H14          6.3420    -0.5540     0.4020 h1         1 9SV       0.033033
     32 H15         -0.3240     4.3090     0.8110 ha         1 9SV       0.133000
     33 H16         -2.2130     5.7230     0.0780 ha         1 9SV       0.121000
     34 H17         -3.9240     4.8170    -1.4900 ha         1 9SV       0.121000
     35 C16         -1.1250    -2.4920    -0.1130 ca         1 9SV      -0.102000
     36 C15         -2.3000    -2.0130     0.5020 ca         1 9SV      -0.084000
     37 C17         -2.6800    -2.4930     1.7680 ca         1 9SV      -0.110500
     38 C18         -1.8950    -3.4580     2.4210 ca         1 9SV      -0.104000
     39 C19         -0.7330    -3.9500     1.8030 ca         1 9SV      -0.110500
     40 C20         -0.3530    -3.4720     0.5370 ca         1 9SV      -0.084000
     41 H9          -2.9270    -1.2790     0.0030 ha         1 9SV       0.120500
     42 H11         -3.5850    -2.1180     2.2400 ha         1 9SV       0.111500
     43 H18         -2.1900    -3.8280     3.4000 ha         1 9SV       0.112000
     44 H19         -0.1260    -4.7010     2.3050 ha         1 9SV       0.111500
     45 H20          0.5500    -3.8520     0.0650 ha         1 9SV       0.120500
     46 S1          -0.5960    -1.9060    -1.7290 ss         1 9SV      -0.079600
@<TRIPOS>BOND
     1     1     2 1   
     2     1    11 1   
     3     1    20 1   
     4     1    21 1   
     5     2    10 1   
     6     2    22 1   
     7     2    23 1   
     8     3     4 1   
     9     3    10 1   
    10     3    24 1   
    11     3    25 1   
    12     4    11 1   
    13     4    26 1   
    14     4    27 1   
    15     5     9 2   
    16     5    18 1   
    17     5    46 1   
    18     6    16 ar  
    19     6    17 ar  
    20     6    28 1   
    21     7     8 2   
    22     7     9 1   
    23     7    13 1   
    24     9    10 1   
    25    11    12 1   
    26    12    29 1   
    27    12    30 1   
    28    12    31 1   
    29    13    14 ar  
    30    13    17 ar  
    31    14    15 ar  
    32    14    32 1   
    33    15    16 ar  
    34    15    33 1   
    35    16    34 1   
    36    17    18 1   
    37    18    19 2   
    38    35    36 ar  
    39    35    40 ar  
    40    35    46 1   
    41    36    37 ar  
    42    36    41 1   
    43    37    38 ar  
    44    37    42 1   
    45    38    39 ar  
    46    38    43 1   
    47    39    40 ar  
    48    39    44 1   
    49    40    45 1   
@<TRIPOS>SUBSTRUCTURE
     1 9SV         1 TEMP              0 ****  ****    0 ROOT
