@<TRIPOS>MOLECULE
9SV
   46    49     1     0     0
SMALL
bcc


@<TRIPOS>ATOM
      1 C1           4.0950    -0.6300    -0.9260 c6         1 9SV       0.143800
      2 C2           2.6680    -1.1020    -0.6800 c6         1 9SV       0.232300
      3 C3           2.7630    -0.0140     1.4800 c6         1 9SV       0.232300
      4 C4           4.1920     0.4120     1.2080 c6         1 9SV       0.143800
      5 C6          -0.2500    -0.2310    -0.5920 cc         1 9SV      -0.187600
      6 C13         -2.9000     2.4820    -0.5510 ca         1 9SV      -0.086000
      7 C14          0.6970     1.8570     0.3390 c          1 9SV       0.563900
      8 O1           1.6800     2.5000     0.6250 o          1 9SV      -0.501100
      9 C5           0.8120     0.3830     0.0130 cd         1 9SV       0.179800
     10 N1           2.0130    -0.1920     0.2440 nh         1 9SV      -0.681400
     11 N            4.8340    -0.5300     0.3130 n3         1 9SV      -0.714600
     12 C            6.2200    -0.1890     0.0860 c3         1 9SV       0.152100
     13 C9          -0.6330     2.4910     0.2580 ca         1 9SV      -0.142600
     14 C10         -0.8300     3.7540     0.8060 ca         1 9SV      -0.083000
     15 C11         -2.0670     4.3700     0.6890 ca         1 9SV      -0.122000
     16 C12         -3.0990     3.7350     0.0080 ca         1 9SV      -0.112000
     17 C8          -1.6680     1.8520    -0.4200 ca         1 9SV      -0.119600
     18 C7          -1.4630     0.4960    -0.9870 c          1 9SV       0.593900
     19 O           -2.3110    -0.0130    -1.6930 o          1 9SV      -0.501100
     20 H1           4.5830    -1.3580    -1.5790 h1         1 9SV       0.045700
     21 H2           4.0670     0.3280    -1.4730 h1         1 9SV       0.045700
     22 H3           2.1420    -1.1080    -1.6330 h1         1 9SV       0.059950
     23 H4           2.6770    -2.1220    -0.2870 h1         1 9SV       0.059950
     24 H5           2.7690    -0.9790     2.0010 h1         1 9SV       0.059950
     25 H6           2.2680     0.6930     2.1390 h1         1 9SV       0.059950
     26 H7           4.1970     1.4350     0.8020 h1         1 9SV       0.045700
     27 H8           4.7370     0.4330     2.1550 h1         1 9SV       0.045700
     28 H10         -3.7040     1.9910    -1.0830 ha         1 9SV       0.159000
     29 H12          6.3560     0.8030    -0.3720 h1         1 9SV       0.033033
     30 H13          6.7660    -0.1970     1.0300 h1         1 9SV       0.033033
     31 H14          6.6820    -0.9260    -0.5730 h1         1 9SV       0.033033
     32 H15         -0.0250     4.2520     1.3280 ha         1 9SV       0.151000
     33 H16         -2.2250     5.3480     1.1220 ha         1 9SV       0.139000
     34 H17         -4.0620     4.2180    -0.0860 ha         1 9SV       0.139000
     35 C16         -1.6970    -2.4810    -0.0710 ca         1 9SV       0.024900
     36 C15         -2.5010    -3.4500    -0.6590 ca         1 9SV      -0.102000
     37 C17         -3.6030    -3.9430     0.0260 ca         1 9SV      -0.128500
     38 C18         -3.9180    -3.4570     1.2880 ca         1 9SV      -0.122000
     39 C19         -3.1150    -2.4830     1.8690 ca         1 9SV      -0.128500
     40 C20         -1.9990    -2.0020     1.2000 ca         1 9SV      -0.102000
     41 H9          -2.2750    -3.8140    -1.6530 ha         1 9SV       0.138500
     42 H11         -4.2250    -4.6990    -0.4370 ha         1 9SV       0.129500
     43 H18         -4.7830    -3.8360     1.8170 ha         1 9SV       0.130000
     44 H19         -3.3500    -2.1020     2.8540 ha         1 9SV       0.129500
     45 H20         -1.3690    -1.2560     1.6680 ha         1 9SV       0.138500
     46 S1          -0.2480    -1.9580    -0.9460 ss         1 9SV      -0.206500
@<TRIPOS>BOND
     1     1     2 1   
     2     1    11 1   
     3     1    20 1   
     4     1    21 1   
     5     2    10 1   
     6     2    22 1   
     7     2    23 1   
     8     3     4 1   
     9     3    10 1   
    10     3    24 1   
    11     3    25 1   
    12     4    11 1   
    13     4    26 1   
    14     4    27 1   
    15     5     9 2   
    16     5    18 1   
    17     5    46 1   
    18     6    16 ar  
    19     6    17 ar  
    20     6    28 1   
    21     7     8 2   
    22     7     9 1   
    23     7    13 1   
    24     9    10 1   
    25    11    12 1   
    26    12    29 1   
    27    12    30 1   
    28    12    31 1   
    29    13    14 ar  
    30    13    17 ar  
    31    14    15 ar  
    32    14    32 1   
    33    15    16 ar  
    34    15    33 1   
    35    16    34 1   
    36    17    18 1   
    37    18    19 2   
    38    35    36 ar  
    39    35    40 ar  
    40    35    46 1   
    41    36    37 ar  
    42    36    41 1   
    43    37    38 ar  
    44    37    42 1   
    45    38    39 ar  
    46    38    43 1   
    47    39    40 ar  
    48    39    44 1   
    49    40    45 1   
@<TRIPOS>SUBSTRUCTURE
     1 9SV         1 TEMP              0 ****  ****    0 ROOT
