@<TRIPOS>MOLECULE
9SW
   68    67     1     0     0
SMALL
No Charge or Current Charge


@<TRIPOS>ATOM
      1 C10         -6.7440   -21.9740   -33.2970 c3         1 9SW      -0.069400
      2 C13         -4.6220   -19.7330   -33.2120 c          1 9SW       0.596100
      3 C15         -6.5850   -20.8100   -39.3590 c3         1 9SW       0.206900
      4 C20         -8.1190   -24.1020   -31.2830 c3         1 9SW      -0.074400
      5 C21         -6.9230   -23.7780   -30.3540 c3         1 9SW      -0.075400
      6 C22         -6.2970   -25.0380   -29.7190 c3         1 9SW      -0.074400
      7 C24         -4.4740   -25.9770   -28.1590 c3         1 9SW      -0.074400
      8 C26         -2.6500   -26.9150   -26.6010 c3         1 9SW      -0.076400
      9 C28         -0.8270   -27.8510   -25.0440 c3         1 9SW      -0.088100
     10 C03         -7.7260   -21.9130   -36.6360 c3         1 9SW      -0.453400
     11 C08         -6.2450   -21.2230   -34.5750 c3         1 9SW      -0.039700
     12 C09         -4.7910   -20.6470   -34.4230 c3         1 9SW      -0.219700
     13 C11         -6.3720   -22.0590   -35.8900 c3         1 9SW      -0.031400
     14 C12         -3.6730   -21.6960   -34.4450 c          1 9SW       0.587100
     15 C14         -2.5900   -21.4990   -35.5060 c3         1 9SW      -0.198100
     16 C16         -4.9780   -17.4790   -32.4360 c3         1 9SW       0.151900
     17 C18         -8.2220   -22.4280   -33.3100 c3         1 9SW      -0.076400
     18 C19         -8.7930   -22.8670   -31.9360 c3         1 9SW      -0.067400
     19 C23         -5.1020   -24.7170   -28.7940 c3         1 9SW      -0.074400
     20 C25         -3.2780   -25.6560   -27.2350 c3         1 9SW      -0.074400
     21 C27         -1.4540   -26.5950   -25.6770 c3         1 9SW      -0.075400
     22 O04         -3.6160   -22.6340   -33.6620 o          1 9SW      -0.491100
     23 O05         -6.5950   -22.2020   -39.0300 os         1 9SW      -0.595400
     24 O07         -9.1450   -22.5570   -38.8980 o          1 9SW      -0.822000
     25 O17         -7.6320   -24.2960   -37.9700 o          1 9SW      -0.822000
     26 P01         -7.8420   -22.8380   -38.2240 p5         1 9SW       1.403400
     27 H1          -6.1200   -22.8590   -33.1370 hc         1 9SW       0.038200
     28 H2          -6.6100   -21.3240   -32.4260 hc         1 9SW       0.038200
     29 H3          -5.9190   -20.6290   -40.2130 h1         1 9SW       0.004700
     30 H4          -7.5870   -20.4540   -39.6290 h1         1 9SW       0.004700
     31 H5          -6.2190   -20.2150   -38.5130 h1         1 9SW       0.004700
     32 H6          -8.8760   -24.6260   -30.6860 hc         1 9SW       0.039200
     33 H7          -7.8040   -24.8050   -32.0650 hc         1 9SW       0.039200
     34 H8          -6.1450   -23.2420   -30.9070 hc         1 9SW       0.037700
     35 H9          -7.2630   -23.1050   -29.5560 hc         1 9SW       0.037700
     36 H10         -7.0640   -25.5720   -29.1440 hc         1 9SW       0.036700
     37 H11         -5.9630   -25.7140   -30.5150 hc         1 9SW       0.036700
     38 H12         -5.2400   -26.5110   -27.5840 hc         1 9SW       0.036200
     39 H13         -4.1410   -26.6540   -28.9560 hc         1 9SW       0.036200
     40 H14         -3.4160   -27.4500   -26.0250 hc         1 9SW       0.036200
     41 H15         -2.3170   -27.5920   -27.3980 hc         1 9SW       0.036200
     42 H16          0.0150   -27.5740   -24.3980 hc         1 9SW       0.029033
     43 H17         -1.5630   -28.3890   -24.4350 hc         1 9SW       0.029033
     44 H18         -0.4550   -28.5320   -25.8190 hc         1 9SW       0.029033
     45 H19         -7.9250   -20.8590   -36.8560 hc         1 9SW       0.044700
     46 H20         -6.8960   -20.3470   -34.6900 hc         1 9SW       0.052700
     47 H21         -4.6670   -19.9860   -35.2890 hc         1 9SW       0.084700
     48 H22         -6.1800   -23.1180   -35.6710 hc         1 9SW       0.048200
     49 H23         -1.8040   -22.2620   -35.4550 hc         1 9SW       0.058367
     50 H24         -3.0590   -21.4680   -36.4950 hc         1 9SW       0.058367
     51 H25         -2.1790   -20.4870   -35.4130 hc         1 9SW       0.058367
     52 H26         -5.3300   -16.5060   -32.7980 h1         1 9SW       0.045700
     53 H27         -5.6150   -17.7790   -31.5930 h1         1 9SW       0.045700
     54 H28         -3.9510   -17.3550   -32.0690 h1         1 9SW       0.045700
     55 H29         -8.8420   -21.6050   -33.6860 hc         1 9SW       0.054200
     56 H30         -8.3360   -23.2620   -34.0120 hc         1 9SW       0.054200
     57 H31         -8.7710   -22.0200   -31.2390 hc         1 9SW       0.028200
     58 H32         -9.8540   -23.1040   -32.0860 hc         1 9SW       0.028200
     59 H33         -4.3350   -24.1820   -29.3690 hc         1 9SW       0.036700
     60 H34         -5.4350   -24.0400   -27.9970 hc         1 9SW       0.036700
     61 H35         -2.5120   -25.1210   -27.8100 hc         1 9SW       0.035700
     62 H36         -3.6110   -24.9790   -26.4380 hc         1 9SW       0.035700
     63 H37         -0.6850   -26.0620   -26.2490 hc         1 9SW       0.035200
     64 H38         -1.7840   -25.9200   -24.8770 hc         1 9SW       0.035200
     65 H40         -8.5570   -22.2780   -36.0290 hc         1 9SW       0.044700
     66 H41         -5.5830   -21.7520   -36.5870 hc         1 9SW       0.048200
     67 O02         -5.0320   -18.4560   -33.4920 os         1 9SW      -0.440100
     68 O06         -4.2520   -20.1050   -32.1070 o          1 9SW      -0.500000
@<TRIPOS>BOND
     1     1    11 1   
     2     1    17 1   
     3     1    27 1   
     4     1    28 1   
     5     2    12 1   
     6     2    67 1   
     7     2    68 2   
     8     3    23 1   
     9     3    29 1   
    10     3    30 1   
    11     3    31 1   
    12     4     5 1   
    13     4    18 1   
    14     4    32 1   
    15     4    33 1   
    16     5     6 1   
    17     5    34 1   
    18     5    35 1   
    19     6    19 1   
    20     6    36 1   
    21     6    37 1   
    22     7    19 1   
    23     7    20 1   
    24     7    38 1   
    25     7    39 1   
    26     8    20 1   
    27     8    21 1   
    28     8    40 1   
    29     8    41 1   
    30     9    21 1   
    31     9    42 1   
    32     9    43 1   
    33     9    44 1   
    34    10    13 1   
    35    10    26 1   
    36    10    45 1   
    37    10    65 1   
    38    11    12 1   
    39    11    13 1   
    40    11    46 1   
    41    12    14 1   
    42    12    47 1   
    43    13    48 1   
    44    13    66 1   
    45    14    15 1   
    46    14    22 2   
    47    15    49 1   
    48    15    50 1   
    49    15    51 1   
    50    16    52 1   
    51    16    53 1   
    52    16    54 1   
    53    16    67 1   
    54    17    18 1   
    55    17    55 1   
    56    17    56 1   
    57    18    57 1   
    58    18    58 1   
    59    19    59 1   
    60    19    60 1   
    61    20    61 1   
    62    20    62 1   
    63    21    63 1   
    64    21    64 1   
    65    23    26 1   
    66    24    26 1   
    67    25    26 1   
@<TRIPOS>SUBSTRUCTURE
     1 9SW         1 TEMP              0 ****  ****    0 ROOT
