@<TRIPOS>MOLECULE
9SW
   68    67     1     0     0
SMALL
abcg2


@<TRIPOS>ATOM
      1 C10         -6.7220   -21.8840   -33.3090 c3         1 9SW      -0.069400
      2 C13         -4.5860   -19.8280   -33.3390 c          1 9SW       0.596100
      3 C15         -6.4930   -21.3620   -39.5590 c3         1 9SW       0.206900
      4 C20         -7.9270   -24.0590   -31.3700 c3         1 9SW      -0.074400
      5 C21         -6.7550   -23.7430   -30.4370 c3         1 9SW      -0.075400
      6 C22         -6.0880   -24.9920   -29.8660 c3         1 9SW      -0.074400
      7 C24         -4.3340   -25.9340   -28.2670 c3         1 9SW      -0.074400
      8 C26         -2.6320   -26.8840   -26.6170 c3         1 9SW      -0.076400
      9 C28         -0.9550   -27.8450   -24.9570 c3         1 9SW      -0.088100
     10 C03         -7.8550   -21.6140   -36.6160 c3         1 9SW      -0.453400
     11 C08         -6.3170   -21.1730   -34.6080 c3         1 9SW      -0.039700
     12 C09         -4.8560   -20.6560   -34.5810 c3         1 9SW      -0.219700
     13 C11         -6.5730   -22.0120   -35.8830 c3         1 9SW      -0.031400
     14 C12         -3.7610   -21.7200   -34.6970 c          1 9SW       0.587100
     15 C14         -2.4320   -21.2250   -35.1990 c3         1 9SW      -0.198100
     16 C16         -5.1690   -17.8490   -32.1820 c3         1 9SW       0.151900
     17 C18         -8.1900   -22.3030   -33.2680 c3         1 9SW      -0.076400
     18 C19         -8.6700   -22.8250   -31.9100 c3         1 9SW      -0.067400
     19 C23         -4.9760   -24.6840   -28.8650 c3         1 9SW      -0.074400
     20 C25         -3.2560   -25.6310   -27.2300 c3         1 9SW      -0.074400
     21 C27         -1.5670   -26.5840   -25.5650 c3         1 9SW      -0.075400
     22 O04         -3.9540   -22.8870   -34.4340 o          1 9SW      -0.491100
     23 O05         -6.9080   -22.5960   -38.9720 os         1 9SW      -0.595400
     24 O07         -9.3990   -21.9780   -38.8110 o          1 9SW      -0.822000
     25 O17         -8.4120   -24.0850   -37.6610 o          1 9SW      -0.822000
     26 P01         -8.2760   -22.6430   -38.0610 p5         1 9SW       1.403400
     27 H1          -6.0820   -22.7550   -33.1690 hc         1 9SW       0.038200
     28 H2          -6.5320   -21.2160   -32.4620 hc         1 9SW       0.038200
     29 H3          -5.6470   -21.5800   -40.2100 h1         1 9SW       0.004700
     30 H4          -7.2980   -20.9180   -40.1470 h1         1 9SW       0.004700
     31 H5          -6.1750   -20.6490   -38.7940 h1         1 9SW       0.004700
     32 H6          -8.6320   -24.6870   -30.8170 hc         1 9SW       0.039200
     33 H7          -7.5730   -24.6700   -32.2090 hc         1 9SW       0.039200
     34 H8          -6.0080   -23.1410   -30.9590 hc         1 9SW       0.037700
     35 H9          -7.1240   -23.1250   -29.6110 hc         1 9SW       0.037700
     36 H10         -6.8470   -25.6130   -29.3780 hc         1 9SW       0.036700
     37 H11         -5.6810   -25.5950   -30.6870 hc         1 9SW       0.036700
     38 H12         -5.1130   -26.5510   -27.8050 hc         1 9SW       0.036200
     39 H13         -3.9030   -26.5400   -29.0720 hc         1 9SW       0.036200
     40 H14         -3.4220   -27.4950   -26.1650 hc         1 9SW       0.036200
     41 H15         -2.1910   -27.4940   -27.4140 hc         1 9SW       0.036200
     42 H16         -0.1980   -27.6010   -24.2080 hc         1 9SW       0.029033
     43 H17         -1.7200   -28.4570   -24.4730 hc         1 9SW       0.029033
     44 H18         -0.4780   -28.4580   -25.7270 hc         1 9SW       0.029033
     45 H19         -7.7820   -20.5750   -36.9470 hc         1 9SW       0.044700
     46 H20         -6.9290   -20.2700   -34.6840 hc         1 9SW       0.052700
     47 H21         -4.7360   -19.9840   -35.4360 hc         1 9SW       0.084700
     48 H22         -6.6020   -23.0720   -35.6250 hc         1 9SW       0.048200
     49 H23         -1.6600   -21.9760   -35.0420 hc         1 9SW       0.058367
     50 H24         -2.5280   -21.0210   -36.2700 hc         1 9SW       0.058367
     51 H25         -2.1530   -20.2860   -34.7180 hc         1 9SW       0.058367
     52 H26         -5.8140   -16.9980   -32.3760 h1         1 9SW       0.045700
     53 H27         -5.5040   -18.3910   -31.2990 h1         1 9SW       0.045700
     54 H28         -4.1370   -17.5270   -32.0500 h1         1 9SW       0.045700
     55 H29         -8.8130   -21.4460   -33.5460 hc         1 9SW       0.054200
     56 H30         -8.3720   -23.0730   -34.0230 hc         1 9SW       0.054200
     57 H31         -8.6100   -22.0190   -31.1700 hc         1 9SW       0.028200
     58 H32         -9.7330   -23.0660   -32.0080 hc         1 9SW       0.028200
     59 H33         -4.2060   -24.0760   -29.3520 hc         1 9SW       0.036700
     60 H34         -5.3850   -24.0690   -28.0550 hc         1 9SW       0.036700
     61 H35         -2.4680   -25.0230   -27.6900 hc         1 9SW       0.035700
     62 H36         -3.6870   -25.0180   -26.4300 hc         1 9SW       0.035700
     63 H37         -0.7770   -25.9740   -26.0160 hc         1 9SW       0.035200
     64 H38         -2.0090   -25.9730   -24.7710 hc         1 9SW       0.035200
     65 H40         -8.7170   -21.6620   -35.9470 hc         1 9SW       0.044700
     66 H41         -5.7370   -21.8950   -36.5760 hc         1 9SW       0.048200
     67 O02         -5.2820   -18.6900   -33.3510 os         1 9SW      -0.440100
     68 O06         -3.8500   -20.1580   -32.4340 o          1 9SW      -0.500000
@<TRIPOS>BOND
     1     1    11 1   
     2     1    17 1   
     3     1    27 1   
     4     1    28 1   
     5     2    12 1   
     6     2    67 1   
     7     2    68 2   
     8     3    23 1   
     9     3    29 1   
    10     3    30 1   
    11     3    31 1   
    12     4     5 1   
    13     4    18 1   
    14     4    32 1   
    15     4    33 1   
    16     5     6 1   
    17     5    34 1   
    18     5    35 1   
    19     6    19 1   
    20     6    36 1   
    21     6    37 1   
    22     7    19 1   
    23     7    20 1   
    24     7    38 1   
    25     7    39 1   
    26     8    20 1   
    27     8    21 1   
    28     8    40 1   
    29     8    41 1   
    30     9    21 1   
    31     9    42 1   
    32     9    43 1   
    33     9    44 1   
    34    10    13 1   
    35    10    26 1   
    36    10    45 1   
    37    10    65 1   
    38    11    12 1   
    39    11    13 1   
    40    11    46 1   
    41    12    14 1   
    42    12    47 1   
    43    13    48 1   
    44    13    66 1   
    45    14    15 1   
    46    14    22 2   
    47    15    49 1   
    48    15    50 1   
    49    15    51 1   
    50    16    52 1   
    51    16    53 1   
    52    16    54 1   
    53    16    67 1   
    54    17    18 1   
    55    17    55 1   
    56    17    56 1   
    57    18    57 1   
    58    18    58 1   
    59    19    59 1   
    60    19    60 1   
    61    20    61 1   
    62    20    62 1   
    63    21    63 1   
    64    21    64 1   
    65    23    26 1   
    66    24    26 1   
    67    25    26 1   
@<TRIPOS>SUBSTRUCTURE
     1 9SW         1 TEMP              0 ****  ****    0 ROOT
