@<TRIPOS>MOLECULE
9SZ
   80    92     1     0     0
SMALL
bcc


@<TRIPOS>ATOM
      1 OAC         -4.3030    -0.0890    -4.0780 o          1 9SZ      -0.926667
      2 PAB         -4.5370     0.0220    -2.5790 p5         1 9SZ       1.286900
      3 OAD         -5.0860     1.3600    -2.1010 o          1 9SZ      -0.926667
      4 OAA         -5.1890    -1.1930    -1.9310 o          1 9SZ      -0.926667
      5 OAE         -2.9000    -0.0060    -2.0230 os         1 9SZ      -0.475500
      6 CAF         -2.6360     0.0280    -0.7040 ca         1 9SZ       0.265100
      7 CAG         -2.5110    -1.1270     0.0620 ca         1 9SZ      -0.139550
      8 CBK         -2.6990    -2.5900    -0.3120 c5         1 9SZ       0.047400
      9 CBJ         -3.2370    -3.1190     1.0420 c5         1 9SZ      -0.087400
     10 CBL         -1.3150    -3.2070    -0.2660 ca         1 9SZ      -0.050800
     11 CBM         -0.4960    -3.7180    -1.2610 ca         1 9SZ      -0.072000
     12 CBN          0.7420    -4.1980    -0.8620 ca         1 9SZ      -0.142800
     13 CBT          1.8940    -4.8000    -1.6510 c5         1 9SZ       0.032400
     14 CBS          2.4360    -5.7830    -0.5840 c5         1 9SZ      -0.085400
     15 CBU          3.0020    -3.7620    -1.5980 ca         1 9SZ      -0.065050
     16 CBV          3.5640    -2.9540    -2.5610 ca         1 9SZ      -0.109250
     17 CBW          4.5740    -2.0670    -2.1740 ca         1 9SZ      -0.142500
     18 CBX          4.9920    -2.0020    -0.8540 ca         1 9SZ      -0.142500
     19 CBY          4.4120    -2.8200     0.1220 ca         1 9SZ      -0.109250
     20 CBZ          3.4220    -3.6950    -0.2640 ca         1 9SZ      -0.065050
     21 CBR          2.5720    -4.6910     0.5070 c5         1 9SZ       0.032400
     22 CBO          1.1570    -4.1340     0.4690 ca         1 9SZ      -0.142800
     23 CBP          0.3530    -3.5920     1.4610 ca         1 9SZ      -0.072000
     24 CBQ         -0.9050    -3.1590     1.0710 ca         1 9SZ      -0.050800
     25 CBI         -2.0530    -2.5460     1.8590 c5         1 9SZ       0.047400
     26 CAH         -2.1380    -1.1000     1.4060 ca         1 9SZ      -0.139550
     27 CAI         -1.9250     0.0870     2.1000 ca         1 9SZ       0.265100
     28 OAJ         -1.7270     0.1260     3.4290 os         1 9SZ      -0.475500
     29 PAK         -0.1270     0.0640     4.0860 p5         1 9SZ       1.286900
     30 OAM         -0.4450     0.2920     5.5590 o          1 9SZ      -0.926667
     31 OAN          0.3720    -1.3360     3.7480 o          1 9SZ      -0.926667
     32 OAL          0.6160     1.1940     3.3920 o          1 9SZ      -0.926667
     33 CAO         -2.0620     1.2420     1.3370 ca         1 9SZ      -0.139550
     34 CAP         -2.4260     1.2170    -0.0110 ca         1 9SZ      -0.139550
     35 CAQ         -2.5160     2.6650    -0.4660 c5         1 9SZ       0.047400
     36 CAR         -3.0410     3.2970     0.8480 c5         1 9SZ      -0.087400
     37 CAS         -1.9010     2.7030     1.7140 c5         1 9SZ       0.047400
     38 CAT         -0.7120     3.2150     0.9160 ca         1 9SZ      -0.050800
     39 CAY         -1.0980     3.2060    -0.4280 ca         1 9SZ      -0.050800
     40 CAX         -0.2410     3.6240    -1.4360 ca         1 9SZ      -0.072000
     41 CAW          1.0080     4.0770    -1.0390 ca         1 9SZ      -0.142800
     42 CAZ          2.1900     4.6090    -1.8350 c5         1 9SZ       0.032400
     43 CBA          2.7280     5.6400    -0.8090 c5         1 9SZ      -0.085400
     44 CBH          3.2780     3.5580    -1.7020 ca         1 9SZ      -0.065050
     45 CBG          3.8540     2.6960    -2.6090 ca         1 9SZ      -0.109250
     46 CBF          4.8510     1.8250    -2.1540 ca         1 9SZ      -0.142500
     47 CBE          5.2410     1.8260    -0.8240 ca         1 9SZ      -0.142500
     48 CBD          4.6440     2.6960     0.0970 ca         1 9SZ      -0.109250
     49 CBC          3.6690     3.5560    -0.3570 ca         1 9SZ      -0.065050
     50 CBB          2.8210     4.6060     0.3420 c5         1 9SZ       0.032400
     51 CAV          1.3960     4.0760     0.3030 ca         1 9SZ      -0.142800
     52 CAU          0.5540     3.6220     1.3080 ca         1 9SZ      -0.072000
     53 H3          -3.3010    -2.7610    -1.1990 hc         1 9SZ       0.102700
     54 H4          -4.2000    -2.6830     1.3150 hc         1 9SZ       0.023950
     55 H5          -3.3080    -4.2090     1.0810 hc         1 9SZ       0.023950
     56 H6          -0.8110    -3.7480    -2.2980 ha         1 9SZ       0.152750
     57 H7           1.6490    -5.1940    -2.6360 hc         1 9SZ       0.053950
     58 H8           1.7220    -6.5660    -0.3210 hc         1 9SZ       0.021950
     59 H9           3.3900    -6.2370    -0.8600 hc         1 9SZ       0.021950
     60 H10          3.2410    -3.0000    -3.5940 ha         1 9SZ       0.123000
     61 H11          5.0340    -1.4230    -2.9120 ha         1 9SZ       0.102250
     62 H12          5.7740    -1.3080    -0.5740 ha         1 9SZ       0.102250
     63 H13          4.7410    -2.7610     1.1530 ha         1 9SZ       0.123000
     64 H14          2.9490    -4.9890     1.4840 hc         1 9SZ       0.053950
     65 H15          0.6800    -3.4920     2.4880 ha         1 9SZ       0.152750
     66 H16         -2.0230    -2.7050     2.9320 hc         1 9SZ       0.102700
     67 H19         -3.0910     2.8260    -1.3730 hc         1 9SZ       0.102700
     68 H20         -3.0500     4.3900     0.8290 hc         1 9SZ       0.023950
     69 H21         -4.0300     2.9300     1.1270 hc         1 9SZ       0.023950
     70 H22         -1.8830     2.9180     2.7790 hc         1 9SZ       0.102700
     71 H23         -0.5370     3.6100    -2.4790 ha         1 9SZ       0.152750
     72 H24          1.9740     4.9520    -2.8450 hc         1 9SZ       0.053950
     73 H25          3.6960     6.0620    -1.0890 hc         1 9SZ       0.021950
     74 H26          2.0210     6.4460    -0.6040 hc         1 9SZ       0.021950
     75 H27          3.5550     2.6920    -3.6500 ha         1 9SZ       0.123000
     76 H28          5.3250     1.1440    -2.8490 ha         1 9SZ       0.102250
     77 H29          6.0170     1.1480    -0.4920 ha         1 9SZ       0.102250
     78 H30          4.9520     2.6910     1.1350 ha         1 9SZ       0.123000
     79 H31          3.1830     4.9460     1.3100 hc         1 9SZ       0.053950
     80 H32          0.8610     3.5760     2.3440 ha         1 9SZ       0.152750
@<TRIPOS>BOND
     1     1     2 1   
     2     2     3 1   
     3     2     4 1   
     4     2     5 1   
     5     5     6 1   
     6     6     7 ar  
     7     6    34 ar  
     8     7     8 1   
     9     7    26 ar  
    10     8     9 1   
    11     8    10 1   
    12     8    53 1   
    13     9    25 1   
    14     9    54 1   
    15     9    55 1   
    16    10    11 ar  
    17    10    24 ar  
    18    11    12 ar  
    19    11    56 1   
    20    12    13 1   
    21    12    22 ar  
    22    13    14 1   
    23    13    15 1   
    24    13    57 1   
    25    14    21 1   
    26    14    58 1   
    27    14    59 1   
    28    15    16 ar  
    29    15    20 ar  
    30    16    17 ar  
    31    16    60 1   
    32    17    18 ar  
    33    17    61 1   
    34    18    19 ar  
    35    18    62 1   
    36    19    20 ar  
    37    19    63 1   
    38    20    21 1   
    39    21    22 1   
    40    21    64 1   
    41    22    23 ar  
    42    23    24 ar  
    43    23    65 1   
    44    24    25 1   
    45    25    26 1   
    46    25    66 1   
    47    26    27 ar  
    48    27    28 1   
    49    27    33 ar  
    50    28    29 1   
    51    29    30 1   
    52    29    31 1   
    53    29    32 1   
    54    33    34 ar  
    55    33    37 1   
    56    34    35 1   
    57    35    36 1   
    58    35    39 1   
    59    35    67 1   
    60    36    37 1   
    61    36    68 1   
    62    36    69 1   
    63    37    38 1   
    64    37    70 1   
    65    38    39 ar  
    66    38    52 ar  
    67    39    40 ar  
    68    40    41 ar  
    69    40    71 1   
    70    41    42 1   
    71    41    51 ar  
    72    42    43 1   
    73    42    44 1   
    74    42    72 1   
    75    43    50 1   
    76    43    73 1   
    77    43    74 1   
    78    44    45 ar  
    79    44    49 ar  
    80    45    46 ar  
    81    45    75 1   
    82    46    47 ar  
    83    46    76 1   
    84    47    48 ar  
    85    47    77 1   
    86    48    49 ar  
    87    48    78 1   
    88    49    50 1   
    89    50    51 1   
    90    50    79 1   
    91    51    52 ar  
    92    52    80 1   
@<TRIPOS>SUBSTRUCTURE
     1 9SZ         1 TEMP              0 ****  ****    0 ROOT
