@<TRIPOS>MOLECULE
9SZ
   80    92     1     0     0
SMALL
No Charge or Current Charge


@<TRIPOS>ATOM
      1 OAC         -4.6780     0.0220    -3.8170 o          1 9SZ      -0.926667
      2 PAB         -4.6590     0.0340    -2.3270 p5         1 9SZ       1.286900
      3 OAD         -5.3480     1.2620    -1.8420 o          1 9SZ      -0.926667
      4 OAA         -5.3870    -1.1640    -1.8230 o          1 9SZ      -0.926667
      5 OAE         -3.1280     0.0120    -1.8230 os         1 9SZ      -0.475500
      6 CAF         -2.7700     0.0440    -0.5030 ca         1 9SZ       0.265100
      7 CAG         -2.5360    -1.1380     0.2280 ca         1 9SZ      -0.139550
      8 CBK         -2.6000    -2.5810    -0.2430 c5         1 9SZ       0.047400
      9 CBJ         -3.0210    -3.1730     1.1560 c5         1 9SZ      -0.087400
     10 CBL         -1.1930    -3.1500    -0.2190 ca         1 9SZ      -0.050800
     11 CBM         -0.3850    -3.6000    -1.2790 ca         1 9SZ      -0.054000
     12 CBN          0.9040    -4.0470    -0.9380 ca         1 9SZ      -0.142800
     13 CBT          2.0210    -4.5640    -1.8310 c5         1 9SZ       0.032400
     14 CBS          2.5880    -5.5840    -0.7660 c5         1 9SZ      -0.085400
     15 CBU          3.1970    -3.6060    -1.7370 ca         1 9SZ      -0.065050
     16 CBV          3.7920    -2.8090    -2.7250 ca         1 9SZ      -0.091250
     17 CBW          4.8790    -1.9900    -2.3560 ca         1 9SZ      -0.124500
     18 CBX          5.3440    -1.9730    -1.0200 ca         1 9SZ      -0.124500
     19 CBY          4.7270    -2.7760    -0.0370 ca         1 9SZ      -0.091250
     20 CBZ          3.6540    -3.5900    -0.4250 ca         1 9SZ      -0.065050
     21 CBR          2.7970    -4.5370     0.3990 c5         1 9SZ       0.032400
     22 CBO          1.3640    -4.0310     0.3820 ca         1 9SZ      -0.142800
     23 CBP          0.5610    -3.5670     1.4400 ca         1 9SZ      -0.054000
     24 CBQ         -0.7340    -3.1350     1.1010 ca         1 9SZ      -0.050800
     25 CBI         -1.8260    -2.5570     1.9830 c5         1 9SZ       0.047400
     26 CAH         -2.0790    -1.1150     1.5560 ca         1 9SZ      -0.139550
     27 CAI         -1.8140     0.1090     2.2200 ca         1 9SZ       0.265100
     28 OAJ         -1.2770     0.2090     3.4790 os         1 9SZ      -0.475500
     29 PAK         -1.8510    -0.4540     4.8330 p5         1 9SZ       1.286900
     30 OAM         -1.7980     0.5620     5.9210 o          1 9SZ      -0.926667
     31 OAN         -3.2600    -0.9050     4.6580 o          1 9SZ      -0.926667
     32 OAL         -0.9950    -1.6080     5.2310 o          1 9SZ      -0.926667
     33 CAO         -2.0150     1.2850     1.4700 ca         1 9SZ      -0.139550
     34 CAP         -2.4820     1.2570     0.1510 ca         1 9SZ      -0.139550
     35 CAQ         -2.5080     2.6810    -0.3800 c5         1 9SZ       0.047400
     36 CAR         -2.9110     3.3400     0.9980 c5         1 9SZ      -0.087400
     37 CAS         -1.7270     2.7290     1.8470 c5         1 9SZ       0.047400
     38 CAT         -0.6250     3.2470     0.9400 ca         1 9SZ      -0.050800
     39 CAY         -1.0870     3.2190    -0.3790 ca         1 9SZ      -0.050800
     40 CAX         -0.2720     3.6070    -1.4580 ca         1 9SZ      -0.054000
     41 CAW          1.0270     4.0410    -1.1370 ca         1 9SZ      -0.142800
     42 CAZ          2.1510     4.4990    -2.0510 c5         1 9SZ       0.032400
     43 CBA          2.7420     5.5500    -1.0290 c5         1 9SZ      -0.085400
     44 CBH          3.3080     3.5230    -1.9220 ca         1 9SZ      -0.065050
     45 CBG          3.8850     2.6760    -2.8780 ca         1 9SZ      -0.091250
     46 CBF          4.9570     1.8510    -2.4780 ca         1 9SZ      -0.124500
     47 CBE          5.4250     1.8780    -1.1430 ca         1 9SZ      -0.124500
     48 CBD          4.8260     2.7320    -0.1930 ca         1 9SZ      -0.091250
     49 CBC          3.7680     3.5500    -0.6110 ca         1 9SZ      -0.065050
     50 CBB          2.9320     4.5460     0.1760 c5         1 9SZ       0.032400
     51 CAV          1.4890     4.0690     0.1820 ca         1 9SZ      -0.142800
     52 CAU          0.6800     3.6650     1.2590 ca         1 9SZ      -0.054000
     53 H3          -3.2450    -2.8290    -1.0940 hc         1 9SZ       0.102700
     54 H4          -4.0060    -2.8260     1.4940 hc         1 9SZ       0.023950
     55 H5          -3.0380    -4.2700     1.1730 hc         1 9SZ       0.023950
     56 H6          -0.7370    -3.5940    -2.3080 ha         1 9SZ       0.134750
     57 H7           1.7590    -4.9760    -2.8120 hc         1 9SZ       0.053950
     58 H8           1.8790    -6.3820    -0.5090 hc         1 9SZ       0.021950
     59 H9           3.5210    -6.0670    -1.0840 hc         1 9SZ       0.021950
     60 H10          3.4250    -2.8240    -3.7490 ha         1 9SZ       0.105000
     61 H11          5.3610    -1.3650    -3.1030 ha         1 9SZ       0.084250
     62 H12          6.1810    -1.3350    -0.7470 ha         1 9SZ       0.084250
     63 H13          5.0740    -2.7650     0.9930 ha         1 9SZ       0.105000
     64 H14          3.2040    -4.9260     1.3390 hc         1 9SZ       0.053950
     65 H15          0.9230    -3.5360     2.4650 ha         1 9SZ       0.134750
     66 H16         -1.8130    -2.8090     3.0470 hc         1 9SZ       0.102700
     67 H19         -3.1490     2.9100    -1.2380 hc         1 9SZ       0.102700
     68 H20         -2.9020     4.4370     0.9710 hc         1 9SZ       0.023950
     69 H21         -3.9020     3.0300     1.3520 hc         1 9SZ       0.023950
     70 H22         -1.6980     2.9960     2.9100 hc         1 9SZ       0.102700
     71 H23         -0.6270     3.5680    -2.4850 ha         1 9SZ       0.134750
     72 H24          1.8950     4.8770    -3.0480 hc         1 9SZ       0.053950
     73 H25          3.6830     6.0010    -1.3690 hc         1 9SZ       0.021950
     74 H26          2.0490     6.3710    -0.8040 hc         1 9SZ       0.021950
     75 H27          3.5160     2.6570    -3.9010 ha         1 9SZ       0.105000
     76 H28          5.4260     1.1880    -3.2010 ha         1 9SZ       0.084250
     77 H29          6.2500     1.2360    -0.8470 ha         1 9SZ       0.084250
     78 H30          5.1760     2.7550     0.8370 ha         1 9SZ       0.105000
     79 H31          3.3490     4.9640     1.1000 hc         1 9SZ       0.053950
     80 H32          1.0440     3.6690     2.2840 ha         1 9SZ       0.134750
@<TRIPOS>BOND
     1     1     2 1   
     2     2     3 1   
     3     2     4 1   
     4     2     5 1   
     5     5     6 1   
     6     6     7 ar  
     7     6    34 ar  
     8     7     8 1   
     9     7    26 ar  
    10     8     9 1   
    11     8    10 1   
    12     8    53 1   
    13     9    25 1   
    14     9    54 1   
    15     9    55 1   
    16    10    11 ar  
    17    10    24 ar  
    18    11    12 ar  
    19    11    56 1   
    20    12    13 1   
    21    12    22 ar  
    22    13    14 1   
    23    13    15 1   
    24    13    57 1   
    25    14    21 1   
    26    14    58 1   
    27    14    59 1   
    28    15    16 ar  
    29    15    20 ar  
    30    16    17 ar  
    31    16    60 1   
    32    17    18 ar  
    33    17    61 1   
    34    18    19 ar  
    35    18    62 1   
    36    19    20 ar  
    37    19    63 1   
    38    20    21 1   
    39    21    22 1   
    40    21    64 1   
    41    22    23 ar  
    42    23    24 ar  
    43    23    65 1   
    44    24    25 1   
    45    25    26 1   
    46    25    66 1   
    47    26    27 ar  
    48    27    28 1   
    49    27    33 ar  
    50    28    29 1   
    51    29    30 1   
    52    29    31 1   
    53    29    32 1   
    54    33    34 ar  
    55    33    37 1   
    56    34    35 1   
    57    35    36 1   
    58    35    39 1   
    59    35    67 1   
    60    36    37 1   
    61    36    68 1   
    62    36    69 1   
    63    37    38 1   
    64    37    70 1   
    65    38    39 ar  
    66    38    52 ar  
    67    39    40 ar  
    68    40    41 ar  
    69    40    71 1   
    70    41    42 1   
    71    41    51 ar  
    72    42    43 1   
    73    42    44 1   
    74    42    72 1   
    75    43    50 1   
    76    43    73 1   
    77    43    74 1   
    78    44    45 ar  
    79    44    49 ar  
    80    45    46 ar  
    81    45    75 1   
    82    46    47 ar  
    83    46    76 1   
    84    47    48 ar  
    85    47    77 1   
    86    48    49 ar  
    87    48    78 1   
    88    49    50 1   
    89    50    51 1   
    90    50    79 1   
    91    51    52 ar  
    92    52    80 1   
@<TRIPOS>SUBSTRUCTURE
     1 9SZ         1 TEMP              0 ****  ****    0 ROOT
