@<TRIPOS>MOLECULE
9T1
   35    35     1     0     0
SMALL
abcg2


@<TRIPOS>ATOM
      1 O10          3.3700    -1.4780     1.1990 o          1 9T1      -0.605100
      2 C10          3.4090    -0.9490     0.0990 c          1 9T1       0.606100
      3 C11          4.6950    -0.7910    -0.6690 c3         1 9T1      -0.178100
      4 N5           2.3130    -0.4470    -0.5070 ns         1 9T1      -0.483900
      5 C5           0.9930    -0.5880     0.0250 c6         1 9T1      -0.036300
      6 C4           0.3040    -1.8340    -0.4980 c          1 9T1       0.529100
      7 O4           0.8440    -2.6310    -1.2210 o          1 9T1      -0.528100
      8 C3          -1.1590    -1.9400    -0.1180 c6         1 9T1       0.089300
      9 F1          -1.2250    -2.0920     1.2650 f          1 9T1      -0.250000
     10 C6           0.1180     0.6370    -0.3420 c6         1 9T1       0.131300
     11 C7           0.6280     1.9110     0.3370 c3         1 9T1       0.195300
     12 O7           0.6170     1.7720     1.7360 oh         1 9T1      -0.724000
     13 C8          -0.1470     3.1570    -0.1080 c3         1 9T1       0.133300
     14 O8          -0.0040     3.2340    -1.5130 oh         1 9T1      -0.669000
     15 C9           0.3770     4.4130     0.5710 c3         1 9T1      -0.120100
     16 O6          -1.2010     0.4400     0.0910 os         1 9T1      -0.412000
     17 C2          -1.8570    -0.6500    -0.5050 c6         1 9T1      -0.011700
     18 C1          -3.3550    -0.6780    -0.1020 c          1 9T1       0.746000
     19 O1B         -3.9630    -1.6910    -0.4930 o          1 9T1      -0.699000
     20 O1A         -3.7930     0.2900     0.5290 o          1 9T1      -0.699000
     21 H1           5.4010    -0.2070    -0.0790 hc         1 9T1       0.052700
     22 H2           5.1410    -1.7730    -0.8310 hc         1 9T1       0.052700
     23 H3           4.5690    -0.3070    -1.6360 hc         1 9T1       0.052700
     24 H4           2.3990    -0.1270    -1.4600 hn         1 9T1       0.308500
     25 H5           1.0480    -0.6540     1.1150 h1         1 9T1       0.129700
     26 H6          -1.6240    -2.8030    -0.5960 h1         1 9T1       0.099700
     27 H7           0.1540     0.7680    -1.4340 h1         1 9T1       0.044700
     28 H8           1.6760     2.0500     0.0500 h1         1 9T1       0.068700
     29 H9          -0.2870     1.5810     2.0150 ho         1 9T1       0.530000
     30 H10         -1.2050     3.0270     0.1620 h1         1 9T1       0.070700
     31 H11         -0.5300     3.9750    -1.8290 ho         1 9T1       0.439000
     32 H12          1.4430     4.5480     0.3810 hc         1 9T1       0.035367
     33 H13         -0.1490     5.2940     0.1970 hc         1 9T1       0.035367
     34 H14          0.2250     4.3780     1.6490 hc         1 9T1       0.035367
     35 H15         -1.8080    -0.5730    -1.6050 h1         1 9T1       0.029700
@<TRIPOS>BOND
     1     1     2 2   
     2     2     3 1   
     3     2     4 1   
     4     3    21 1   
     5     3    22 1   
     6     3    23 1   
     7     4     5 1   
     8     4    24 1   
     9     5     6 1   
    10     5    10 1   
    11     5    25 1   
    12     6     7 2   
    13     6     8 1   
    14     8     9 1   
    15     8    17 1   
    16     8    26 1   
    17    10    11 1   
    18    10    16 1   
    19    10    27 1   
    20    11    12 1   
    21    11    13 1   
    22    11    28 1   
    23    12    29 1   
    24    13    14 1   
    25    13    15 1   
    26    13    30 1   
    27    14    31 1   
    28    15    32 1   
    29    15    33 1   
    30    15    34 1   
    31    16    17 1   
    32    17    18 1   
    33    17    35 1   
    34    18    19 1   
    35    18    20 1   
@<TRIPOS>SUBSTRUCTURE
     1 9T1         1 TEMP              0 ****  ****    0 ROOT
