@<TRIPOS>MOLECULE
9T1
   35    35     1     0     0
SMALL
No Charge or Current Charge


@<TRIPOS>ATOM
      1 O10          3.6440    -1.4980     1.0520 o          1 9T1      -0.605100
      2 C10          3.5360    -0.9630    -0.0420 c          1 9T1       0.606100
      3 C11          4.7180    -0.7730    -0.9840 c3         1 9T1      -0.178100
      4 N5           2.3380    -0.4680    -0.5100 ns         1 9T1      -0.483900
      5 C5           1.0190    -0.5950     0.1770 c6         1 9T1      -0.036300
      6 C4           0.3470    -1.9830    -0.0700 c          1 9T1       0.529100
      7 O4           1.0190    -3.0110    -0.1160 o          1 9T1      -0.528100
      8 C3          -1.1990    -2.0630    -0.1390 c6         1 9T1       0.089300
      9 F1          -1.6770    -2.5550     1.1010 f          1 9T1      -0.250000
     10 C6           0.1000     0.6090    -0.1720 c6         1 9T1       0.131300
     11 C7           0.5590     1.9370     0.5260 c3         1 9T1       0.195300
     12 O7           0.1860     1.8900     1.9190 oh         1 9T1      -0.724000
     13 C8          -0.0330     3.2260    -0.1380 c3         1 9T1       0.133300
     14 O8           0.3650     3.3060    -1.5180 oh         1 9T1      -0.669000
     15 C9           0.4120     4.5350     0.5530 c3         1 9T1      -0.120100
     16 O6          -1.2490     0.3570     0.2730 os         1 9T1      -0.412000
     17 C2          -1.9060    -0.7220    -0.4400 c6         1 9T1      -0.011700
     18 C1          -3.4480    -0.8210    -0.1740 c          1 9T1       0.746000
     19 O1B         -4.1370    -0.9180    -1.1820 o          1 9T1      -0.699000
     20 O1A         -3.8860    -0.2210     0.8000 o          1 9T1      -0.699000
     21 H1           4.8040     0.2890    -1.2400 hc         1 9T1       0.052700
     22 H2           5.6540    -1.1680    -0.5740 hc         1 9T1       0.052700
     23 H3           4.4780    -1.2270    -1.9530 hc         1 9T1       0.052700
     24 H4           2.3670    -0.0440    -1.4310 hn         1 9T1       0.308500
     25 H5           1.1890    -0.5740     1.2630 h1         1 9T1       0.129700
     26 H6          -1.4570    -2.8040    -0.9080 h1         1 9T1       0.099700
     27 H7           0.0930     0.7530    -1.2630 h1         1 9T1       0.044700
     28 H8           1.6520     2.0040     0.4370 h1         1 9T1       0.068700
     29 H9          -0.6700     1.3960     1.9210 ho         1 9T1       0.530000
     30 H10         -1.1290     3.1650    -0.0740 h1         1 9T1       0.070700
     31 H11         -0.0400     4.1210    -1.8900 ho         1 9T1       0.439000
     32 H12          1.5050     4.6280     0.5490 hc         1 9T1       0.035367
     33 H13         -0.0100     5.4090     0.0410 hc         1 9T1       0.035367
     34 H14          0.0700     4.5650     1.5940 hc         1 9T1       0.035367
     35 H15         -1.7950    -0.5190    -1.5150 h1         1 9T1       0.029700
@<TRIPOS>BOND
     1     1     2 2   
     2     2     3 1   
     3     2     4 1   
     4     3    21 1   
     5     3    22 1   
     6     3    23 1   
     7     4     5 1   
     8     4    24 1   
     9     5     6 1   
    10     5    10 1   
    11     5    25 1   
    12     6     7 2   
    13     6     8 1   
    14     8     9 1   
    15     8    17 1   
    16     8    26 1   
    17    10    11 1   
    18    10    16 1   
    19    10    27 1   
    20    11    12 1   
    21    11    13 1   
    22    11    28 1   
    23    12    29 1   
    24    13    14 1   
    25    13    15 1   
    26    13    30 1   
    27    14    31 1   
    28    15    32 1   
    29    15    33 1   
    30    15    34 1   
    31    16    17 1   
    32    17    18 1   
    33    17    35 1   
    34    18    19 1   
    35    18    20 1   
@<TRIPOS>SUBSTRUCTURE
     1 9T1         1 TEMP              0 ****  ****    0 ROOT
