@<TRIPOS>MOLECULE
9T2
   38    40     1     0     0
SMALL
abcg2


@<TRIPOS>ATOM
      1 C14         -0.7100    -1.5470    -0.0750 cc         1 9T2      -0.000400
      2 C26          2.8320    -0.4570    -0.0950 cc         1 9T2       0.307200
      3 C16         -2.4520    -3.2360    -0.1780 cc         1 9T2      -0.004000
      4 C12          1.6900    -1.4070    -0.0780 c          1 9T2       0.548800
      5 C17         -2.9940    -2.0110    -0.0990 cd         1 9T2      -0.128000
      6 C18         -1.9760    -1.0020    -0.0360 cd         1 9T2      -0.260600
      7 C29          4.8970     0.2090     0.1670 ca         1 9T2       0.076400
      8 C28          4.3600     1.4050    -0.3420 ca         1 9T2      -0.180000
      9 O12          1.8560    -2.6080    -0.1010 o          1 9T2      -0.531100
     10 S27          2.6820     1.1810    -0.6700 ss         1 9T2       0.093800
     11 C34          5.1450     2.5380    -0.5320 ca         1 9T2      -0.077000
     12 C33          6.4810     2.4530    -0.1970 ca         1 9T2      -0.086000
     13 C32          7.0310     1.2690     0.3150 ca         1 9T2      -0.115000
     14 C31          6.2530     0.1480     0.5010 ca         1 9T2      -0.040000
     15 N30          4.0040    -0.8200     0.2880 nd         1 9T2      -0.463100
     16 N13          0.4620    -0.8370    -0.0430 ns         1 9T2      -0.379100
     17 S15         -0.7250    -3.2700    -0.1800 ss         1 9T2       0.321000
     18 F16         -3.0910    -4.3940    -0.2520 f          1 9T2      -0.141000
     19 C19         -2.1740     0.4500     0.0600 c          1 9T2       0.673700
     20 O19         -1.2380     1.2260     0.1480 o          1 9T2      -0.576100
     21 N20         -3.4820     0.8650     0.0430 ns         1 9T2      -0.459500
     22 C21         -3.9290     2.1750     0.1320 c          1 9T2       0.648100
     23 O22         -3.2360     3.1470     0.2600 o          1 9T2      -0.471000
     24 O21         -5.2470     2.1650     0.0580 os         1 9T2      -0.468100
     25 C37         -5.9330     3.4260     0.1490 c3         1 9T2       0.185600
     26 C38         -7.4060     3.1580    -0.0210 c3         1 9T2      -0.101100
     27 H1          -4.0630    -1.8540    -0.0870 ha         1 9T2       0.146000
     28 H2           4.7260     3.4530    -0.9260 ha         1 9T2       0.129000
     29 H3           7.1170     3.3170    -0.3340 ha         1 9T2       0.119000
     30 H4           8.0820     1.2390     0.5660 ha         1 9T2       0.122000
     31 H5           6.6690    -0.7690     0.8960 ha         1 9T2       0.137000
     32 H6           0.3190     0.1650     0.0760 hn         1 9T2       0.381500
     33 H7          -4.2050     0.1700    -0.0480 hn         1 9T2       0.336500
     34 H8          -5.7290     3.8800     1.1200 h1         1 9T2       0.052700
     35 H9          -5.5670     4.1010    -0.6250 h1         1 9T2       0.052700
     36 H10         -7.9470     4.0970     0.0770 hc         1 9T2       0.050033
     37 H11         -7.6260     2.7400    -1.0020 hc         1 9T2       0.050033
     38 H12         -7.7800     2.4780     0.7430 hc         1 9T2       0.050033
@<TRIPOS>BOND
     1     1     6 2   
     2     1    16 1   
     3     1    17 1   
     4     2     4 1   
     5     2    10 1   
     6     2    15 2   
     7     3     5 2   
     8     3    17 1   
     9     3    18 1   
    10     4     9 2   
    11     4    16 1   
    12     5     6 1   
    13     5    27 1   
    14     6    19 1   
    15     7     8 ar  
    16     7    14 ar  
    17     7    15 1   
    18     8    10 1   
    19     8    11 ar  
    20    11    12 ar  
    21    11    28 1   
    22    12    13 ar  
    23    12    29 1   
    24    13    14 ar  
    25    13    30 1   
    26    14    31 1   
    27    16    32 1   
    28    19    20 2   
    29    19    21 1   
    30    21    22 1   
    31    21    33 1   
    32    22    23 2   
    33    22    24 1   
    34    24    25 1   
    35    25    26 1   
    36    25    34 1   
    37    25    35 1   
    38    26    36 1   
    39    26    37 1   
    40    26    38 1   
@<TRIPOS>SUBSTRUCTURE
     1 9T2         1 TEMP              0 ****  ****    0 ROOT
