@<TRIPOS>MOLECULE
9T2
   38    40     1     0     0
SMALL
No Charge or Current Charge


@<TRIPOS>ATOM
      1 C14         -0.7550    -1.7350    -0.0190 cc         1 9T2      -0.000400
      2 C26          2.8810    -0.6240     0.0040 cc         1 9T2       0.307200
      3 C16         -2.7480    -3.2480    -0.0340 cc         1 9T2      -0.004000
      4 C12          1.7610    -1.6290    -0.0050 c          1 9T2       0.548800
      5 C17         -3.0870    -1.9240    -0.0310 cd         1 9T2      -0.128000
      6 C18         -1.9560    -1.0340    -0.0220 cd         1 9T2      -0.260600
      7 C29          4.9430     0.1890     0.0170 ca         1 9T2       0.076400
      8 C28          4.2420     1.3760     0.0170 ca         1 9T2      -0.180000
      9 O12          1.9420    -2.8440    -0.0080 o          1 9T2      -0.531100
     10 S27          2.5060     1.1220     0.0070 ss         1 9T2       0.093800
     11 C34          4.8880     2.6220     0.0240 ca         1 9T2      -0.077000
     12 C33          6.2960     2.6500     0.0310 ca         1 9T2      -0.086000
     13 C32          7.0250     1.4420     0.0310 ca         1 9T2      -0.115000
     14 C31          6.3480     0.2050     0.0240 ca         1 9T2      -0.040000
     15 N30          4.1850    -0.9750     0.0090 nd         1 9T2      -0.463100
     16 N13          0.4790    -1.0840    -0.0100 ns         1 9T2      -0.379100
     17 S15         -1.0140    -3.4940    -0.0260 ss         1 9T2       0.321000
     18 F16         -3.6390    -4.2520    -0.0420 f          1 9T2      -0.141000
     19 C19         -2.0220     0.4640    -0.0180 c          1 9T2       0.673700
     20 O19         -1.0370     1.1890    -0.0100 o          1 9T2      -0.576100
     21 N20         -3.2970     0.9460    -0.0230 ns         1 9T2      -0.459500
     22 C21         -3.7510     2.2240    -0.0210 c          1 9T2       0.648100
     23 O22         -3.0680     3.2360    -0.0140 o          1 9T2      -0.471000
     24 O21         -5.1130     2.1870    -0.0280 os         1 9T2      -0.468100
     25 C37         -5.8170     3.4410    -0.0270 c3         1 9T2       0.185600
     26 C38         -7.3200     3.1220    -0.0360 c3         1 9T2      -0.101100
     27 H1          -4.1260    -1.6070    -0.0350 ha         1 9T2       0.146000
     28 H2           4.3160     3.5480     0.0230 ha         1 9T2       0.129000
     29 H3           6.8210     3.6030     0.0360 ha         1 9T2       0.119000
     30 H4           8.1130     1.4640     0.0370 ha         1 9T2       0.122000
     31 H5           6.9060    -0.7280     0.0240 ha         1 9T2       0.137000
     32 H6           0.4410    -0.0670    -0.0070 hn         1 9T2       0.381500
     33 H7          -4.0230     0.2540    -0.0290 hn         1 9T2       0.336500
     34 H8          -5.5720     4.0290     0.8680 h1         1 9T2       0.052700
     35 H9          -5.5630     4.0340    -0.9150 h1         1 9T2       0.052700
     36 H10         -7.9040     4.0500    -0.0360 hc         1 9T2       0.050033
     37 H11         -7.5880     2.5470    -0.9300 hc         1 9T2       0.050033
     38 H12         -7.5970     2.5410     0.8520 hc         1 9T2       0.050033
@<TRIPOS>BOND
     1     1     6 2   
     2     1    16 1   
     3     1    17 1   
     4     2     4 1   
     5     2    10 1   
     6     2    15 2   
     7     3     5 2   
     8     3    17 1   
     9     3    18 1   
    10     4     9 2   
    11     4    16 1   
    12     5     6 1   
    13     5    27 1   
    14     6    19 1   
    15     7     8 ar  
    16     7    14 ar  
    17     7    15 1   
    18     8    10 1   
    19     8    11 ar  
    20    11    12 ar  
    21    11    28 1   
    22    12    13 ar  
    23    12    29 1   
    24    13    14 ar  
    25    13    30 1   
    26    14    31 1   
    27    16    32 1   
    28    19    20 2   
    29    19    21 1   
    30    21    22 1   
    31    21    33 1   
    32    22    23 2   
    33    22    24 1   
    34    24    25 1   
    35    25    26 1   
    36    25    34 1   
    37    25    35 1   
    38    26    36 1   
    39    26    37 1   
    40    26    38 1   
@<TRIPOS>SUBSTRUCTURE
     1 9T2         1 TEMP              0 ****  ****    0 ROOT
