@<TRIPOS>MOLECULE
9T4
   46    49     1     0     0
SMALL
No Charge or Current Charge


@<TRIPOS>ATOM
      1 C08        121.8530   131.4640   118.7710 c6         1 9T4       0.052400
      2 C09        123.1780   130.7340   119.0460 ce         1 9T4      -0.293400
      3 C10        123.5410   129.6350   118.3570 c2         1 9T4       0.187800
      4 C11        124.8160   128.8360   118.6350 c6         1 9T4      -0.055200
      5 C12        125.7460   129.4680   119.7070 c6         1 9T4      -0.063400
      6 C13        120.9220   130.7060   117.7890 ce         1 9T4      -0.249400
      7 C14        124.9300   130.1920   120.8020 c6         1 9T4      -0.179400
      8 C15        124.0560   131.2530   120.1370 c          1 9T4       0.593300
      9 C16        121.3800   129.6040   117.1260 c2         1 9T4       0.153800
     10 C17        122.1610   132.8280   118.1830 cc         1 9T4       0.122300
     11 C18        119.5390   131.3220   117.6570 c          1 9T4       0.631300
     12 C19        120.6720   128.7190   116.1110 c3         1 9T4      -0.073900
     13 C20        121.8760   134.0610   118.7030 cd         1 9T4      -0.158000
     14 C21        122.3520   135.0140   117.7790 cd         1 9T4      -0.183000
     15 C22        122.9060   134.3240   116.7340 cc         1 9T4       0.105900
     16 C23        117.3460   131.1030   116.3390 ca         1 9T4      -0.015000
     17 C24        116.8600   130.7170   115.0690 ca         1 9T4       0.083000
     18 C25        116.4560   131.7290   117.2440 ca         1 9T4      -0.097000
     19 C26        115.1240   131.9790   116.8740 ca         1 9T4       0.134000
     20 C27        115.5270   130.9700   114.7030 ca         1 9T4      -0.082000
     21 C28        114.6580   131.6040   115.6060 ca         1 9T4      -0.109000
     22 N06        122.6670   129.1490   117.4000 nu         1 9T4      -0.681000
     23 N07        118.7030   130.8180   116.6710 ns         1 9T4      -0.163000
     24 O03        122.7940   132.9710   116.9660 os         1 9T4      -0.246000
     25 O04        124.0130   132.4010   120.5590 o          1 9T4      -0.535100
     26 O05        119.1830   132.2370   118.3890 o          1 9T4      -0.561100
     27 Cl01       117.9150   129.9190   113.9030 cl         1 9T4      -0.186000
     28 Cl02       114.0320   132.7580   118.0110 cl         1 9T4      -0.191000
     29 H1         121.3310   131.5870   119.7320 hc         1 9T4       0.103700
     30 H4         124.5230   127.8330   118.9750 hc         1 9T4       0.057700
     31 H5         125.3780   128.6890   117.7030 hc         1 9T4       0.057700
     32 H6         126.3900   128.6960   120.1510 hc         1 9T4       0.053700
     33 H7         126.4180   130.1920   119.2240 hc         1 9T4       0.053700
     34 H9         124.2590   129.4390   121.2370 hc         1 9T4       0.070700
     35 H10        125.5530   130.6340   121.5900 hc         1 9T4       0.070700
     36 H12        119.7100   128.3600   116.4950 hc         1 9T4       0.059367
     37 H13        120.5000   129.2610   115.1750 hc         1 9T4       0.059367
     38 H14        121.2510   127.8250   115.8530 hc         1 9T4       0.059367
     39 H15        121.3780   134.2590   119.6460 ha         1 9T4       0.150000
     40 H16        122.2940   136.0940   117.8710 ha         1 9T4       0.139000
     41 H17        123.3820   134.6470   115.8180 h4         1 9T4       0.045100
     42 H18        116.7710   132.0140   118.2410 ha         1 9T4       0.145000
     43 H19        115.1680   130.6730   113.7210 ha         1 9T4       0.133000
     44 H20        113.6250   131.8000   115.3250 ha         1 9T4       0.135000
     45 H21        122.9830   128.3280   116.8800 hn         1 9T4       0.498000
     46 H23        119.1280   130.1220   116.0760 hn         1 9T4       0.168000
@<TRIPOS>BOND
     1     1     2 1   
     2     1     6 1   
     3     1    10 1   
     4     1    29 1   
     5     2     3 2   
     6     2     8 1   
     7     3     4 1   
     8     3    22 1   
     9     4     5 1   
    10     4    30 1   
    11     4    31 1   
    12     5     7 1   
    13     5    32 1   
    14     5    33 1   
    15     6     9 2   
    16     6    11 1   
    17     7     8 1   
    18     7    34 1   
    19     7    35 1   
    20     8    25 2   
    21     9    12 1   
    22     9    22 1   
    23    10    13 2   
    24    10    24 1   
    25    11    23 1   
    26    11    26 2   
    27    12    36 1   
    28    12    37 1   
    29    12    38 1   
    30    13    14 1   
    31    13    39 1   
    32    14    15 2   
    33    14    40 1   
    34    15    24 1   
    35    15    41 1   
    36    16    17 ar  
    37    16    18 ar  
    38    16    23 1   
    39    17    20 ar  
    40    17    27 1   
    41    18    19 ar  
    42    18    42 1   
    43    19    21 ar  
    44    19    28 1   
    45    20    21 ar  
    46    20    43 1   
    47    21    44 1   
    48    22    45 1   
    49    23    46 1   
@<TRIPOS>SUBSTRUCTURE
     1 9T4         1 TEMP              0 ****  ****    0 ROOT
