@<TRIPOS>MOLECULE
9T4
   46    49     1     0     0
SMALL
abcg2


@<TRIPOS>ATOM
      1 C08        121.7470   131.3780   118.7490 c6         1 9T4       0.052400
      2 C09        123.0480   130.7160   119.1330 ce         1 9T4      -0.293400
      3 C10        123.3800   129.4930   118.6430 c2         1 9T4       0.187800
      4 C11        124.6850   128.8200   118.9320 c6         1 9T4      -0.055200
      5 C12        125.7480   129.8280   119.3310 c6         1 9T4      -0.063400
      6 C13        120.7800   130.3720   118.1610 ce         1 9T4      -0.249400
      7 C14        125.2260   130.7390   120.4290 c6         1 9T4      -0.179400
      8 C15        123.9270   131.4150   120.0490 c          1 9T4       0.593300
      9 C16        121.1800   129.1680   117.7240 c2         1 9T4       0.153800
     10 C17        121.9540   132.4900   117.7700 cc         1 9T4       0.122300
     11 C18        119.3790   130.8560   118.0620 c          1 9T4       0.631300
     12 C19        120.3250   128.1190   117.0880 c3         1 9T4      -0.073900
     13 C20        121.6700   133.8150   117.7930 cd         1 9T4      -0.158000
     14 C21        122.0790   134.3380   116.5270 cd         1 9T4      -0.183000
     15 C22        122.5790   133.2880   115.8370 cc         1 9T4       0.105900
     16 C23        117.6300   131.4140   116.4540 ca         1 9T4      -0.015000
     17 C24        117.5100   132.4230   115.4980 ca         1 9T4       0.083000
     18 C25        116.4760   130.9120   117.0460 ca         1 9T4      -0.097000
     19 C26        115.2410   131.4180   116.6830 ca         1 9T4       0.134000
     20 C27        116.2660   132.9090   115.1280 ca         1 9T4      -0.082000
     21 C28        115.1210   132.4120   115.7250 ca         1 9T4      -0.109000
     22 N06        122.5010   128.7880   117.8900 nu         1 9T4      -0.681000
     23 N07        118.8890   130.9070   116.7900 ns         1 9T4      -0.163000
     24 O03        122.5050   132.1640   116.5810 os         1 9T4      -0.246000
     25 O04        123.6180   132.4980   120.5290 o          1 9T4      -0.535100
     26 O05        118.7500   131.2390   119.0300 o          1 9T4      -0.561100
     27 CL01       118.9310   133.0850   114.7740 cl         1 9T4      -0.186000
     28 CL02       113.8170   130.7760   117.4260 cl         1 9T4      -0.191000
     29 H1         121.2990   131.8360   119.6370 hc         1 9T4       0.103700
     30 H4         124.5280   128.0940   119.7380 hc         1 9T4       0.057700
     31 H5         125.0020   128.2470   118.0580 hc         1 9T4       0.057700
     32 H6         126.6450   129.3070   119.6660 hc         1 9T4       0.053700
     33 H7         126.0330   130.4220   118.4590 hc         1 9T4       0.053700
     34 H9         125.0390   130.1520   121.3360 hc         1 9T4       0.070700
     35 H10        125.9570   131.5030   120.6960 hc         1 9T4       0.070700
     36 H12        119.2690   128.3650   117.1180 hc         1 9T4       0.059367
     37 H13        120.6090   127.9750   116.0430 hc         1 9T4       0.059367
     38 H14        120.4610   127.1630   117.5960 hc         1 9T4       0.059367
     39 H15        121.2230   134.3540   118.6140 ha         1 9T4       0.150000
     40 H16        122.0090   135.3570   116.1830 ha         1 9T4       0.139000
     41 H17        123.0040   133.1900   114.8510 h4         1 9T4       0.045100
     42 H18        116.5510   130.1140   117.7710 ha         1 9T4       0.145000
     43 H19        116.1890   133.6880   114.3810 ha         1 9T4       0.133000
     44 H20        114.1510   132.7980   115.4420 ha         1 9T4       0.135000
     45 H21        122.7720   127.8700   117.5730 hn         1 9T4       0.498000
     46 H23        119.5440   130.7510   116.0380 hn         1 9T4       0.168000
@<TRIPOS>BOND
     1     1     2 1   
     2     1     6 1   
     3     1    10 1   
     4     1    29 1   
     5     2     3 2   
     6     2     8 1   
     7     3     4 1   
     8     3    22 1   
     9     4     5 1   
    10     4    30 1   
    11     4    31 1   
    12     5     7 1   
    13     5    32 1   
    14     5    33 1   
    15     6     9 2   
    16     6    11 1   
    17     7     8 1   
    18     7    34 1   
    19     7    35 1   
    20     8    25 2   
    21     9    12 1   
    22     9    22 1   
    23    10    13 2   
    24    10    24 1   
    25    11    23 1   
    26    11    26 2   
    27    12    36 1   
    28    12    37 1   
    29    12    38 1   
    30    13    14 1   
    31    13    39 1   
    32    14    15 2   
    33    14    40 1   
    34    15    24 1   
    35    15    41 1   
    36    16    17 ar  
    37    16    18 ar  
    38    16    23 1   
    39    17    20 ar  
    40    17    27 1   
    41    18    19 ar  
    42    18    42 1   
    43    19    21 ar  
    44    19    28 1   
    45    20    21 ar  
    46    20    43 1   
    47    21    44 1   
    48    22    45 1   
    49    23    46 1   
@<TRIPOS>SUBSTRUCTURE
     1 9T4         1 TEMP              0 ****  ****    0 ROOT
