@<TRIPOS>MOLECULE
9T6
   46    50     1     0     0
SMALL
No Charge or Current Charge


@<TRIPOS>ATOM
      1 C9           1.8920     2.3620     0.2710 cc         1 9T6      -0.206200
      2 C3           3.6710    -1.2810    -0.4160 ca         1 9T6       0.394900
      3 C8           2.9200     3.1660    -0.1870 cd         1 9T6      -0.173100
      4 C5           2.3010     0.9990     0.0650 ca         1 9T6      -0.153800
      5 C2           2.3850    -1.3940     0.1460 ca         1 9T6      -0.308600
      6 C1           1.6570    -0.2100     0.3610 ca         1 9T6       0.396000
      7 C6           3.5610     1.0160    -0.4740 ca         1 9T6       0.385500
      8 C10          1.8560    -2.7400     0.5220 c          1 9T6       0.628700
      9 C19         -1.9390     1.8520     0.9530 c6         1 9T6      -0.066400
     10 C23         -2.5670    -0.4720     1.7610 c6         1 9T6      -0.066400
     11 C22         -4.2150     0.8790     0.3810 c6         1 9T6      -0.099400
     12 C15         -2.4630     1.1630    -1.4320 c6         1 9T6      -0.081900
     13 C16         -3.0870    -1.1630    -0.6230 c6         1 9T6      -0.081900
     14 C21         -3.1040     0.9590     1.4690 c6         1 9T6      -0.054700
     15 C14         -1.3410     1.2400    -0.3520 c6         1 9T6      -0.061700
     16 C17         -1.9670    -1.0870     0.4580 c6         1 9T6      -0.061700
     17 C18         -0.7990    -0.2010    -0.0850 c6         1 9T6       0.203500
     18 C20         -3.6320     0.2650    -0.9260 c6         1 9T6       0.178000
     19 N4           4.2550    -0.1020    -0.7310 nb         1 9T6      -0.697000
     20 N7           3.9570     2.3260    -0.6650 na         1 9T6      -0.321400
     21 N12          2.4200    -3.8260    -0.0440 nt         1 9T6      -0.600000
     22 N13          0.3500    -0.2470     0.8420 nu         1 9T6      -0.910200
     23 O11          0.9820    -2.9050     1.3550 o          1 9T6      -0.630100
     24 O24         -4.6520     0.1890    -1.9230 oh         1 9T6      -0.656000
     25 H1           0.9760     2.7130     0.7420 ha         1 9T6       0.216000
     26 H2           4.2850    -2.1600    -0.6060 h4         1 9T6       0.016100
     27 H3           2.9990     4.2530    -0.1950 h4         1 9T6       0.217000
     28 H4          -2.3000     2.8720     0.7620 hc         1 9T6       0.048200
     29 H5          -1.1640     1.9420     1.7270 hc         1 9T6       0.048200
     30 H6          -1.8100    -0.4370     2.5570 hc         1 9T6       0.048200
     31 H7          -3.3780    -1.1090     2.1410 hc         1 9T6       0.048200
     32 H8          -5.0540     0.2700     0.7470 hc         1 9T6       0.044200
     33 H9          -4.6210     1.8810     0.1880 hc         1 9T6       0.044200
     34 H10         -2.8280     2.1730    -1.6640 hc         1 9T6       0.049700
     35 H11         -2.0530     0.7600    -2.3680 hc         1 9T6       0.049700
     36 H12         -2.6930    -1.6220    -1.5400 hc         1 9T6       0.049700
     37 H13         -3.9010    -1.8140    -0.2760 hc         1 9T6       0.049700
     38 H14         -3.5200     1.3910     2.3900 hc         1 9T6       0.051700
     39 H15         -0.5390     1.8760    -0.7410 hc         1 9T6       0.062200
     40 H16         -1.6010    -2.1020     0.6630 hc         1 9T6       0.062200
     41 H17         -0.4790    -0.6340    -1.0460 h1         1 9T6       0.033700
     42 H18          4.8450     2.6130    -1.0570 hn         1 9T6       0.362000
     43 H19          3.1410    -3.7280    -0.7420 hn         1 9T6       0.315500
     44 H20          2.0830    -4.7410     0.2170 hn         1 9T6       0.315500
     45 H21          0.2700    -1.0450     1.4780 hn         1 9T6       0.470000
     46 H22         -5.0050     1.0980    -2.0320 ho         1 9T6       0.440000
@<TRIPOS>BOND
     1     1     3 2   
     2     1     4 1   
     3     1    25 1   
     4     2     5 ar  
     5     2    19 ar  
     6     2    26 1   
     7     3    20 1   
     8     3    27 1   
     9     4     6 ar  
    10     4     7 ar  
    11     5     6 ar  
    12     5     8 1   
    13     6    22 1   
    14     7    19 ar  
    15     7    20 1   
    16     8    21 1   
    17     8    23 2   
    18     9    14 1   
    19     9    15 1   
    20     9    28 1   
    21     9    29 1   
    22    10    14 1   
    23    10    16 1   
    24    10    30 1   
    25    10    31 1   
    26    11    14 1   
    27    11    18 1   
    28    11    32 1   
    29    11    33 1   
    30    12    15 1   
    31    12    18 1   
    32    12    34 1   
    33    12    35 1   
    34    13    16 1   
    35    13    18 1   
    36    13    36 1   
    37    13    37 1   
    38    14    38 1   
    39    15    17 1   
    40    15    39 1   
    41    16    17 1   
    42    16    40 1   
    43    17    22 1   
    44    17    41 1   
    45    18    24 1   
    46    20    42 1   
    47    21    43 1   
    48    21    44 1   
    49    22    45 1   
    50    24    46 1   
@<TRIPOS>SUBSTRUCTURE
     1 9T6         1 TEMP              0 ****  ****    0 ROOT
