@<TRIPOS>MOLECULE
9T6
   46    50     1     0     0
SMALL
abcg2


@<TRIPOS>ATOM
      1 C9           1.7440     2.3620     0.2820 cc         1 9T6      -0.206200
      2 C3           3.7090    -1.1840    -0.3040 ca         1 9T6       0.394900
      3 C8           2.7890     3.1270    -0.1420 cd         1 9T6      -0.173100
      4 C5           2.1450     0.9980     0.1290 ca         1 9T6      -0.153800
      5 C2           2.4050    -1.3700     0.1860 ca         1 9T6      -0.308600
      6 C1           1.5800    -0.2510     0.4210 ca         1 9T6       0.396000
      7 C6           3.4660     1.0240    -0.3730 ca         1 9T6       0.385500
      8 C10          1.9370    -2.7530     0.4820 c          1 9T6       0.628700
      9 C19         -1.8150     1.8240     0.8580 c6         1 9T6      -0.066400
     10 C23         -2.5570    -0.3650     1.7890 c6         1 9T6      -0.066400
     11 C22         -4.1130     0.9720     0.3640 c6         1 9T6      -0.099400
     12 C15         -2.3940     1.0340    -1.4420 c6         1 9T6      -0.081900
     13 C16         -3.1350    -1.1430    -0.5140 c6         1 9T6      -0.081900
     14 C21         -3.0090     1.0490     1.4200 c6         1 9T6      -0.054700
     15 C14         -1.2840     1.1190    -0.3900 c6         1 9T6      -0.061700
     16 C17         -2.0270    -1.0680     0.5380 c6         1 9T6      -0.061700
     17 C18         -0.8290    -0.3020    -0.0450 c6         1 9T6       0.203500
     18 C20         -3.5940     0.2630    -0.8900 c6         1 9T6       0.178000
     19 N4           4.2550    -0.0200    -0.5930 nb         1 9T6      -0.697000
     20 N7           3.8200     2.3210    -0.5430 na         1 9T6      -0.321400
     21 N12          2.3980    -3.7170    -0.3280 nt         1 9T6      -0.600000
     22 N13          0.2830    -0.3610     0.9220 nu         1 9T6      -0.910200
     23 O11          1.1830    -3.0010     1.4220 o          1 9T6      -0.630100
     24 O24         -4.6120     0.1280    -1.8650 oh         1 9T6      -0.656000
     25 H1           0.8150     2.7370     0.6760 ha         1 9T6       0.216000
     26 H2           4.3500    -2.0470    -0.4480 h4         1 9T6       0.016100
     27 H3           2.8840     4.1990    -0.1820 h4         1 9T6       0.217000
     28 H4          -2.1110     2.8480     0.6080 hc         1 9T6       0.048200
     29 H5          -1.0340     1.8970     1.6180 hc         1 9T6       0.048200
     30 H6          -1.7900    -0.3230     2.5670 hc         1 9T6       0.048200
     31 H7          -3.3940    -0.9370     2.2020 hc         1 9T6       0.048200
     32 H8          -4.9810     0.4300     0.7550 hc         1 9T6       0.044200
     33 H9          -4.4550     1.9810     0.1020 hc         1 9T6       0.044200
     34 H10         -2.7020     2.0450    -1.7310 hc         1 9T6       0.049700
     35 H11         -2.0280     0.5410    -2.3490 hc         1 9T6       0.049700
     36 H12         -2.7780    -1.6690    -1.4060 hc         1 9T6       0.049700
     37 H13         -3.9800    -1.7180    -0.1190 hc         1 9T6       0.049700
     38 H14         -3.3910     1.5570     2.3100 hc         1 9T6       0.051700
     39 H15         -0.4520     1.6810    -0.8180 hc         1 9T6       0.062200
     40 H16         -1.7090    -2.0860     0.7860 hc         1 9T6       0.062200
     41 H17         -0.5300    -0.8060    -0.9760 h1         1 9T6       0.033700
     42 H18          4.7130     2.6390    -0.8840 hn         1 9T6       0.362000
     43 H19          2.8970    -3.5170    -1.1770 hn         1 9T6       0.315500
     44 H20          2.1280    -4.6740    -0.1680 hn         1 9T6       0.315500
     45 H21          0.2180    -1.2400     1.4220 hn         1 9T6       0.470000
     46 H22         -4.9190     1.0110    -2.0990 ho         1 9T6       0.440000
@<TRIPOS>BOND
     1     1     3 2   
     2     1     4 1   
     3     1    25 1   
     4     2     5 ar  
     5     2    19 ar  
     6     2    26 1   
     7     3    20 1   
     8     3    27 1   
     9     4     6 ar  
    10     4     7 ar  
    11     5     6 ar  
    12     5     8 1   
    13     6    22 1   
    14     7    19 ar  
    15     7    20 1   
    16     8    21 1   
    17     8    23 2   
    18     9    14 1   
    19     9    15 1   
    20     9    28 1   
    21     9    29 1   
    22    10    14 1   
    23    10    16 1   
    24    10    30 1   
    25    10    31 1   
    26    11    14 1   
    27    11    18 1   
    28    11    32 1   
    29    11    33 1   
    30    12    15 1   
    31    12    18 1   
    32    12    34 1   
    33    12    35 1   
    34    13    16 1   
    35    13    18 1   
    36    13    36 1   
    37    13    37 1   
    38    14    38 1   
    39    15    17 1   
    40    15    39 1   
    41    16    17 1   
    42    16    40 1   
    43    17    22 1   
    44    17    41 1   
    45    18    24 1   
    46    20    42 1   
    47    21    43 1   
    48    21    44 1   
    49    22    45 1   
    50    24    46 1   
@<TRIPOS>SUBSTRUCTURE
     1 9T6         1 TEMP              0 ****  ****    0 ROOT
