@<TRIPOS>MOLECULE
9T7
   37    37     1     0     0
SMALL
bcc


@<TRIPOS>ATOM
      1 OAC          2.3150     2.3230    -1.5730 o          1 9T7      -0.795300
      2 CAO          2.3580     1.1870    -1.0710 c          1 9T7       0.911600
      3 OAE          2.8510     0.1510    -1.5320 o          1 9T7      -0.795300
      4 CAV          1.7440     1.0730     0.3610 c6         1 9T7       0.212100
      5 FAJ          2.7910     1.2640     1.2430 f          1 9T7      -0.230300
      6 CAS          0.6770     2.1150     0.6520 c6         1 9T7       0.102600
      7 FAI          0.3630     2.0490     2.0080 f          1 9T7      -0.253300
      8 CAR         -0.5770     1.8070    -0.1510 c6         1 9T7       0.107100
      9 OAD         -1.6320     2.6740     0.1690 oh         1 9T7      -0.589800
     10 OAM          1.2690    -0.1880     0.6700 os         1 9T7      -0.425600
     11 CAU          0.1350    -0.6060    -0.0690 c6         1 9T7       0.131100
     12 CAQ         -0.2060    -2.0090     0.4340 c3         1 9T7       0.133100
     13 CAP          0.8480    -3.0490     0.0090 c3         1 9T7       0.109100
     14 CAK          0.5670    -4.4180     0.6100 c3         1 9T7      -0.120100
     15 OAF          0.9250    -3.1110    -1.4010 oh         1 9T7      -0.569800
     16 OAG         -0.4260    -2.0110     1.8230 oh         1 9T7      -0.595800
     17 CAT         -1.0340     0.3740     0.1220 c6         1 9T7       0.075700
     18 NAL         -2.1160     0.0180    -0.7600 ns         1 9T7      -0.561900
     19 CAN         -3.3830    -0.2150    -0.3660 c          1 9T7       0.672100
     20 OAB         -3.7400    -0.2060     0.8020 o          1 9T7      -0.600100
     21 CAA         -4.3510    -0.5040    -1.4870 c3         1 9T7      -0.182100
     22 H2           1.0420     3.1220     0.4430 h1         1 9T7       0.086700
     23 H3          -0.3090     1.8910    -1.2130 h1         1 9T7       0.061700
     24 H4          -1.4790     3.5180    -0.2680 ho         1 9T7       0.399000
     25 H5           0.3800    -0.6640    -1.1360 h1         1 9T7       0.078700
     26 H6          -1.1580    -2.3050    -0.0240 h1         1 9T7       0.057700
     27 H7           1.8350    -2.7120     0.3390 h1         1 9T7       0.105700
     28 H8          -0.4300    -4.7740     0.3360 hc         1 9T7       0.034700
     29 H9           1.2960    -5.1440     0.2470 hc         1 9T7       0.034700
     30 H10          0.6270    -4.4040     1.6970 hc         1 9T7       0.034700
     31 H11          0.1050    -3.4970    -1.7300 ho         1 9T7       0.378000
     32 H12          0.3720    -1.6910     2.2570 ho         1 9T7       0.421000
     33 H13         -1.4000     0.3010     1.1470 h1         1 9T7       0.117700
     34 H14         -1.9270     0.0350    -1.7500 hn         1 9T7       0.304500
     35 H15         -4.8450    -1.4570    -1.3020 hc         1 9T7       0.050700
     36 H16         -5.1250     0.2650    -1.5040 hc         1 9T7       0.050700
     37 H17         -3.8850    -0.5420    -2.4700 hc         1 9T7       0.050700
@<TRIPOS>BOND
     1     1     2 1   
     2     2     3 1   
     3     2     4 1   
     4     4     5 1   
     5     4     6 1   
     6     4    10 1   
     7     6     7 1   
     8     6     8 1   
     9     6    22 1   
    10     8     9 1   
    11     8    17 1   
    12     8    23 1   
    13     9    24 1   
    14    10    11 1   
    15    11    12 1   
    16    11    17 1   
    17    11    25 1   
    18    12    13 1   
    19    12    16 1   
    20    12    26 1   
    21    13    14 1   
    22    13    15 1   
    23    13    27 1   
    24    14    28 1   
    25    14    29 1   
    26    14    30 1   
    27    15    31 1   
    28    16    32 1   
    29    17    18 1   
    30    17    33 1   
    31    18    19 1   
    32    18    34 1   
    33    19    20 2   
    34    19    21 1   
    35    21    35 1   
    36    21    36 1   
    37    21    37 1   
@<TRIPOS>SUBSTRUCTURE
     1 9T7         1 TEMP              0 ****  ****    0 ROOT
