@<TRIPOS>MOLECULE
9T7
   37    37     1     0     0
SMALL
No Charge or Current Charge


@<TRIPOS>ATOM
      1 OAC          3.5250     2.0990    -0.9970 o          1 9T7      -0.690000
      2 CAO          2.4820     1.4510    -0.9770 c          1 9T7       0.701000
      3 OAE          2.3070     0.5960    -1.8370 o          1 9T7      -0.690000
      4 CAV          1.7970     1.2350     0.4570 c6         1 9T7       0.254000
      5 FAJ          2.7660     1.4840     1.4640 f          1 9T7      -0.249000
      6 CAS          0.6550     2.2710     0.6660 c6         1 9T7       0.121300
      7 FAI          0.2440     2.2570     2.0250 f          1 9T7      -0.272000
      8 CAR         -0.5760     1.8950    -0.2130 c6         1 9T7       0.130300
      9 OAD         -1.6530     2.8410    -0.0410 oh         1 9T7      -0.652000
     10 OAM          1.2940    -0.1130     0.7410 os         1 9T7      -0.472000
     11 CAU          0.1340    -0.5590    -0.0290 c6         1 9T7       0.154300
     12 CAQ         -0.1980    -1.9950     0.5110 c3         1 9T7       0.156300
     13 CAP          0.7260    -3.1100    -0.0840 c3         1 9T7       0.132300
     14 CAK          0.4440    -4.5200     0.4830 c3         1 9T7      -0.120100
     15 OAF          0.5710    -3.1770    -1.5110 oh         1 9T7      -0.632000
     16 OAG         -0.0830    -1.9860     1.9480 oh         1 9T7      -0.718000
     17 CAT         -1.0580     0.4460     0.1200 c6         1 9T7       0.075700
     18 NAL         -2.2020     0.0760    -0.7480 ns         1 9T7      -0.494900
     19 CAN         -3.3490    -0.5670    -0.3450 c          1 9T7       0.605100
     20 OAB         -3.5370    -0.9230     0.8080 o          1 9T7      -0.600100
     21 CAA         -4.3700    -0.8030    -1.4520 c3         1 9T7      -0.182100
     22 H2           1.0140     3.2830     0.4300 h1         1 9T7       0.086700
     23 H3          -0.2540     1.9060    -1.2660 h1         1 9T7       0.061700
     24 H4          -1.3320     3.7160    -0.3500 ho         1 9T7       0.438000
     25 H5           0.3910    -0.6410    -1.0930 h1         1 9T7       0.078700
     26 H6          -1.2270    -2.2470     0.2240 h1         1 9T7       0.057700
     27 H7           1.7660    -2.8450     0.1620 h1         1 9T7       0.105700
     28 H8          -0.6010    -4.8090     0.3180 hc         1 9T7       0.034700
     29 H9           1.0890    -5.2660     0.0040 hc         1 9T7       0.034700
     30 H10          0.6420    -4.5550     1.5610 hc         1 9T7       0.034700
     31 H11         -0.1960    -3.7620    -1.6940 ho         1 9T7       0.417000
     32 H12          0.6010    -1.2920     2.1200 ho         1 9T7       0.520000
     33 H13         -1.3920     0.4300     1.1680 h1         1 9T7       0.117700
     34 H14         -2.1710     0.3530    -1.7230 hn         1 9T7       0.304500
     35 H15         -5.2690    -1.3180    -1.0960 hc         1 9T7       0.050700
     36 H16         -4.6140     0.1560    -1.9230 hc         1 9T7       0.050700
     37 H17         -3.8890    -1.3480    -2.2710 hc         1 9T7       0.050700
@<TRIPOS>BOND
     1     1     2 1   
     2     2     3 1   
     3     2     4 1   
     4     4     5 1   
     5     4     6 1   
     6     4    10 1   
     7     6     7 1   
     8     6     8 1   
     9     6    22 1   
    10     8     9 1   
    11     8    17 1   
    12     8    23 1   
    13     9    24 1   
    14    10    11 1   
    15    11    12 1   
    16    11    17 1   
    17    11    25 1   
    18    12    13 1   
    19    12    16 1   
    20    12    26 1   
    21    13    14 1   
    22    13    15 1   
    23    13    27 1   
    24    14    28 1   
    25    14    29 1   
    26    14    30 1   
    27    15    31 1   
    28    16    32 1   
    29    17    18 1   
    30    17    33 1   
    31    18    19 1   
    32    18    34 1   
    33    19    20 2   
    34    19    21 1   
    35    21    35 1   
    36    21    36 1   
    37    21    37 1   
@<TRIPOS>SUBSTRUCTURE
     1 9T7         1 TEMP              0 ****  ****    0 ROOT
