@<TRIPOS>MOLECULE
9T8
   33    32     1     0     0
SMALL
abcg2


@<TRIPOS>ATOM
      1 C01          4.3160     1.4880    -0.5140 c3         1 9T8       0.072400
      2 N02         -0.8230     0.1360     0.0480 ns         1 9T8      -0.504900
      3 C03          2.8790    -0.5000    -0.1220 c3         1 9T8       0.094600
      4 C05          0.4030    -0.6200    -0.0920 c3         1 9T8       0.114000
      5 C06         -2.0290    -0.4480     0.0330 c          1 9T8       0.612100
      6 C07         -3.2010     0.5050     0.1760 c3         1 9T8      -0.202400
      7 C04          1.6050     0.2970     0.0840 c3         1 9T8      -0.123400
      8 N01          4.1060     0.2510     0.2780 nx         1 9T8      -0.656000
      9 C02          5.3020    -0.6270     0.2170 c3         1 9T8       0.072400
     10 N03         -5.6510     0.7210     0.1460 nz         1 9T8      -0.978000
     11 C08         -4.5160    -0.2300     0.0220 c3         1 9T8       0.118600
     12 O01         -2.1810    -1.6550    -0.0800 o          1 9T8      -0.559100
     13 H006         4.4060     1.2180    -1.5620 hx         1 9T8       0.105367
     14 H004         3.4780     2.1620    -0.3710 hx         1 9T8       0.105367
     15 H005         5.2270     1.9680    -0.1710 hx         1 9T8       0.105367
     16 HN02        -0.7660     1.1400     0.1020 hn         1 9T8       0.322500
     17 H031         2.8680    -1.4040     0.4850 hx         1 9T8       0.107700
     18 H032         3.0110    -0.7870    -1.1650 hx         1 9T8       0.107700
     19 H052         0.4320    -1.4160     0.6550 h1         1 9T8       0.074700
     20 H051         0.4410    -1.1000    -1.0740 h1         1 9T8       0.074700
     21 H072        -3.1470     0.9920     1.1540 hc         1 9T8       0.083700
     22 H071        -3.1150     1.2970    -0.5730 hc         1 9T8       0.083700
     23 H042         1.5910     0.7300     1.0880 hc         1 9T8       0.070200
     24 H041         1.5410     1.1180    -0.6330 hc         1 9T8       0.070200
     25 HN01         3.9900     0.5270     1.2540 hn         1 9T8       0.503000
     26 H001         6.1650    -0.0690     0.5680 hx         1 9T8       0.105367
     27 H002         5.1380    -1.4910     0.8540 hx         1 9T8       0.105367
     28 H003         5.4550    -0.9420    -0.8110 hx         1 9T8       0.105367
     29 H1          -5.6660     1.1890     1.0520 hn         1 9T8       0.518000
     30 H2          -5.6240     1.4480    -0.5690 hn         1 9T8       0.518000
     31 HN03        -6.5450     0.2420     0.0460 hn         1 9T8       0.518000
     32 H081        -4.6080    -0.7000    -0.9530 hx         1 9T8       0.127200
     33 H082        -4.6550    -0.9850     0.7900 hx         1 9T8       0.127200
@<TRIPOS>BOND
     1     1     8 1   
     2     1    13 1   
     3     1    14 1   
     4     1    15 1   
     5     2     4 1   
     6     2     5 1   
     7     2    16 1   
     8     3     7 1   
     9     3     8 1   
    10     3    17 1   
    11     3    18 1   
    12     4     7 1   
    13     4    19 1   
    14     4    20 1   
    15     5     6 1   
    16     5    12 2   
    17     6    11 1   
    18     6    21 1   
    19     6    22 1   
    20     7    23 1   
    21     7    24 1   
    22     8     9 1   
    23     8    25 1   
    24     9    26 1   
    25     9    27 1   
    26     9    28 1   
    27    10    11 1   
    28    10    29 1   
    29    10    30 1   
    30    10    31 1   
    31    11    32 1   
    32    11    33 1   
@<TRIPOS>SUBSTRUCTURE
     1 9T8         1 TEMP              0 ****  ****    0 ROOT
