@<TRIPOS>MOLECULE
9T8
   33    32     1     0     0
SMALL
No Charge or Current Charge


@<TRIPOS>ATOM
      1 C01          4.2290     1.5690    -0.1550 c3         1 9T8       0.072400
      2 N02         -0.9820    -0.0010    -0.7090 ns         1 9T8      -0.504900
      3 C03          2.8210    -0.5590    -0.3500 c3         1 9T8       0.094600
      4 C05          0.3160    -0.6630    -0.8680 c3         1 9T8       0.114000
      5 C06         -1.7540    -0.0520     0.4290 c          1 9T8       0.612100
      6 C07         -3.0530     0.7470     0.3730 c3         1 9T8      -0.202400
      7 C04          1.4490     0.1200    -0.1770 c3         1 9T8      -0.123400
      8 N01          3.9510     0.1580     0.3910 nx         1 9T8      -0.656000
      9 C02          5.2310    -0.6910     0.4200 c3         1 9T8       0.072400
     10 N03         -5.5390     0.6020     0.2730 nz         1 9T8      -0.978000
     11 C08         -4.2600    -0.1960     0.3060 c3         1 9T8       0.118600
     12 O01         -1.4160    -0.6740     1.4240 o          1 9T8      -0.559100
     13 H006         4.5360     1.5010    -1.2020 hx         1 9T8       0.105367
     14 H004         3.3270     2.1820    -0.0850 hx         1 9T8       0.105367
     15 H005         5.0280     2.0400     0.4230 hx         1 9T8       0.105367
     16 HN02        -1.3430     0.5470    -1.4820 hn         1 9T8       0.322500
     17 H031         2.7550    -1.5830     0.0270 hx         1 9T8       0.107700
     18 H032         3.0740    -0.6080    -1.4130 hx         1 9T8       0.107700
     19 H052         0.2570    -1.6770    -0.4500 h1         1 9T8       0.074700
     20 H051         0.5350    -0.7550    -1.9410 h1         1 9T8       0.074700
     21 H072        -3.1280     1.3480     1.2860 hc         1 9T8       0.083700
     22 H071        -3.0590     1.4010    -0.5070 hc         1 9T8       0.083700
     23 H042         1.2280     0.2130     0.8930 hc         1 9T8       0.070200
     24 H041         1.4830     1.1340    -0.5930 hc         1 9T8       0.070200
     25 HN01         3.6420     0.2690     1.3880 hn         1 9T8       0.503000
     26 H001         6.0010    -0.1820     1.0060 hx         1 9T8       0.105367
     27 H002         5.0210    -1.6640     0.8710 hx         1 9T8       0.105367
     28 H003         5.5950    -0.8380    -0.5990 hx         1 9T8       0.105367
     29 H1          -5.6700     1.2020     1.1030 hn         1 9T8       0.518000
     30 H2          -5.6100     1.2340    -0.5400 hn         1 9T8       0.518000
     31 HN03        -6.3850     0.0110     0.2310 hn         1 9T8       0.518000
     32 H081        -4.1930    -0.8230    -0.5920 hx         1 9T8       0.127200
     33 H082        -4.2590    -0.8580     1.1820 hx         1 9T8       0.127200
@<TRIPOS>BOND
     1     1     8 1   
     2     1    13 1   
     3     1    14 1   
     4     1    15 1   
     5     2     4 1   
     6     2     5 1   
     7     2    16 1   
     8     3     7 1   
     9     3     8 1   
    10     3    17 1   
    11     3    18 1   
    12     4     7 1   
    13     4    19 1   
    14     4    20 1   
    15     5     6 1   
    16     5    12 2   
    17     6    11 1   
    18     6    21 1   
    19     6    22 1   
    20     7    23 1   
    21     7    24 1   
    22     8     9 1   
    23     8    25 1   
    24     9    26 1   
    25     9    27 1   
    26     9    28 1   
    27    10    11 1   
    28    10    29 1   
    29    10    30 1   
    30    10    31 1   
    31    11    32 1   
    32    11    33 1   
@<TRIPOS>SUBSTRUCTURE
     1 9T8         1 TEMP              0 ****  ****    0 ROOT
