@<TRIPOS>MOLECULE
9T9
   68    74     1     0     0
SMALL
bcc


@<TRIPOS>ATOM
      1 C1           2.6780     1.5780    -0.0440 ca         1 9T9      -0.319000
      2 C2           2.6700     0.3080    -0.6580 ca         1 9T9       0.292600
      3 C3           1.4430    -0.2270    -1.0790 ca         1 9T9      -0.302000
      4 C4           0.2750     0.4770    -0.8840 ca         1 9T9       0.251100
      5 C5           0.2390     1.7490    -0.2630 ca         1 9T9      -0.338600
      6 C6           1.4940     2.2400     0.1310 ca         1 9T9       0.276900
      7 O7          -0.8440    -0.1350    -1.3290 os         1 9T9      -0.197200
      8 C8          -2.0200     0.4980    -1.1640 cc         1 9T9       0.080100
      9 C9          -2.1620     1.7540    -0.5480 cc         1 9T9      -0.269600
     10 C10         -1.0160     2.4750    -0.0500 c          1 9T9       0.650300
     11 C11         -3.2500     0.0300    -1.5500 cd         1 9T9      -0.131600
     12 N12         -4.1340     0.9950    -1.1650 na         1 9T9      -0.105100
     13 C13         -3.5250     2.0450    -0.5660 cd         1 9T9      -0.066800
     14 O14         -1.1080     3.5690     0.4930 o          1 9T9      -0.555100
     15 C15         -4.3260     3.1580    -0.1190 cd         1 9T9       0.453900
     16 C16         -3.6540    -1.2640    -2.1680 c3         1 9T9       0.052200
     17 C17         -3.8990    -2.3310    -1.1260 ca         1 9T9      -0.084300
     18 C18         -5.1500    -2.4030    -0.4920 ca         1 9T9      -0.111000
     19 C19         -5.3080    -3.3550     0.4840 ca         1 9T9       0.054100
     20 C20         -4.2850    -4.2200     0.8410 ca         1 9T9       0.053100
     21 C21         -3.0560    -4.1700     0.2330 ca         1 9T9      -0.113000
     22 C22         -2.8820    -3.2010    -0.7630 ca         1 9T9      -0.114000
     23 O23         -6.4120    -3.6410     1.2140 os         1 9T9      -0.320900
     24 C24         -5.9950    -4.5660     2.2100 c5         1 9T9       0.326200
     25 O25         -4.7290    -5.0680     1.8020 os         1 9T9      -0.320900
     26 S26         -3.7210     4.5730     0.6700 ss         1 9T9       0.006700
     27 C27         -5.3220     5.1760     0.7560 cd         1 9T9      -0.249400
     28 C28         -6.1860     4.2890     0.1970 cc         1 9T9       0.345200
     29 N29         -5.6190     3.1570    -0.2930 nc         1 9T9      -0.680000
     30 F30          1.5550     3.4380     0.7140 f          1 9T9      -0.116900
     31 N31          3.8070    -0.3840    -0.8420 nu         1 9T9      -0.775600
     32 C32          5.1150     0.0510    -0.4110 c3         1 9T9       0.225800
     33 C33          6.1360    -1.0360    -0.7220 c3         1 9T9       0.150800
     34 N34          7.4710    -0.6630    -0.3100 n3         1 9T9      -0.712600
     35 C35          8.4780    -1.4680    -0.9850 c6         1 9T9       0.127800
     36 C36          9.8770    -1.0210    -0.5780 c6         1 9T9       0.162800
     37 N37         10.1060    -1.0460     0.8560 n3         1 9T9      -0.711600
     38 C38          9.0540    -0.2990     1.5210 c6         1 9T9       0.162800
     39 C39          7.6460    -0.7360     1.1330 c6         1 9T9       0.127800
     40 C40         10.2950    -2.3810     1.3900 c3         1 9T9       0.150100
     41 H1           3.5960     2.0420     0.2870 ha         1 9T9       0.156000
     42 H2           1.4060    -1.1980    -1.5580 ha         1 9T9       0.148000
     43 H3          -5.1310     0.9590    -1.3210 hn         1 9T9       0.323700
     44 H4          -4.5480    -1.1170    -2.7790 hc         1 9T9       0.064200
     45 H5          -2.8690    -1.5900    -2.8520 hc         1 9T9       0.064200
     46 H6          -5.9600    -1.7390    -0.7670 ha         1 9T9       0.146000
     47 H7          -2.2570    -4.8480     0.5020 ha         1 9T9       0.152000
     48 H8          -1.9210    -3.1320    -1.2590 ha         1 9T9       0.141000
     49 H9          -5.8990    -4.0560     3.1740 h2         1 9T9       0.065200
     50 H10         -5.5430     6.1320     1.2020 h4         1 9T9       0.179000
     51 H11         -7.2550     4.4280     0.1220 h4         1 9T9       0.039100
     52 H12          3.7350    -1.2880    -1.2800 hn         1 9T9       0.436800
     53 H13          5.4090     0.9730    -0.9230 h1         1 9T9       0.055700
     54 H14          5.1010     0.2680     0.6610 h1         1 9T9       0.055700
     55 H15          5.8130    -1.9850    -0.2610 h1         1 9T9       0.035700
     56 H16          6.1430    -1.1980    -1.8040 h1         1 9T9       0.035700
     57 H18          8.3470    -2.5440    -0.7740 h1         1 9T9       0.036200
     58 H19          8.3650    -1.3450    -2.0650 h1         1 9T9       0.036200
     59 H20         10.6220    -1.6460    -1.0750 h1         1 9T9       0.060700
     60 H21         10.0310     0.0050    -0.9310 h1         1 9T9       0.060700
     61 H23          9.1780    -0.3810     2.6040 h1         1 9T9       0.060700
     62 H24          9.1700     0.7600     1.2650 h1         1 9T9       0.060700
     63 H25          6.9340    -0.0720     1.6270 h1         1 9T9       0.036200
     64 H26          7.4390    -1.7530     1.5090 h1         1 9T9       0.036200
     65 H27         11.1390    -2.8550     0.8860 h1         1 9T9       0.031033
     66 H28         10.5390    -2.3160     2.4520 h1         1 9T9       0.031033
     67 H29          9.4340    -3.0530     1.2910 h1         1 9T9       0.031033
     68 H30         -6.7120    -5.3830     2.2790 h2         1 9T9       0.065200
@<TRIPOS>BOND
     1     1     2 ar  
     2     1     6 ar  
     3     1    41 1   
     4     2     3 ar  
     5     2    31 1   
     6     3     4 ar  
     7     3    42 1   
     8     4     5 ar  
     9     4     7 1   
    10     5     6 ar  
    11     5    10 1   
    12     6    30 1   
    13     7     8 1   
    14     8     9 1   
    15     8    11 2   
    16     9    10 1   
    17     9    13 2   
    18    10    14 2   
    19    11    12 1   
    20    11    16 1   
    21    12    13 1   
    22    12    43 1   
    23    13    15 1   
    24    15    26 1   
    25    15    29 2   
    26    16    17 1   
    27    16    44 1   
    28    16    45 1   
    29    17    18 ar  
    30    17    22 ar  
    31    18    19 ar  
    32    18    46 1   
    33    19    20 ar  
    34    19    23 1   
    35    20    21 ar  
    36    20    25 1   
    37    21    22 ar  
    38    21    47 1   
    39    22    48 1   
    40    23    24 1   
    41    24    25 1   
    42    24    49 1   
    43    24    68 1   
    44    26    27 1   
    45    27    28 2   
    46    27    50 1   
    47    28    29 1   
    48    28    51 1   
    49    31    32 1   
    50    31    52 1   
    51    32    33 1   
    52    32    53 1   
    53    32    54 1   
    54    33    34 1   
    55    33    55 1   
    56    33    56 1   
    57    34    35 1   
    58    34    39 1   
    59    35    36 1   
    60    35    57 1   
    61    35    58 1   
    62    36    37 1   
    63    36    59 1   
    64    36    60 1   
    65    37    38 1   
    66    37    40 1   
    67    38    39 1   
    68    38    61 1   
    69    38    62 1   
    70    39    63 1   
    71    39    64 1   
    72    40    65 1   
    73    40    66 1   
    74    40    67 1   
@<TRIPOS>SUBSTRUCTURE
     1 9T9         1 TEMP              0 ****  ****    0 ROOT
