@<TRIPOS>MOLECULE
9T9
   68    74     1     0     0
SMALL
No Charge or Current Charge


@<TRIPOS>ATOM
      1 C1           2.3720     1.7190    -0.1290 ca         1 9T9      -0.301000
      2 C2           2.3110     0.4610    -0.7220 ca         1 9T9       0.431000
      3 C3           1.1110     0.0060    -1.2590 ca         1 9T9      -0.284000
      4 C4          -0.0460     0.7930    -1.2060 ca         1 9T9       0.251100
      5 C5           0.0070     2.0790    -0.6150 ca         1 9T9      -0.338600
      6 C6           1.2320     2.5250    -0.0780 ca         1 9T9       0.312000
      7 O7          -1.1740     0.2480    -1.8020 os         1 9T9      -0.197200
      8 C8          -2.3230     0.9080    -1.4650 cc         1 9T9       0.080100
      9 C9          -2.4340     2.1850    -0.9240 cc         1 9T9      -0.269600
     10 C10         -1.2190     2.9350    -0.5820 c          1 9T9       0.650300
     11 C11         -3.5290     0.3070    -1.6620 cd         1 9T9      -0.182300
     12 N12         -4.4630     1.2480    -1.2010 na         1 9T9      -0.054000
     13 C13         -3.7950     2.3910    -0.7160 cd         1 9T9      -0.117500
     14 O14         -1.1960     4.1150    -0.2740 o          1 9T9      -0.555100
     15 C15         -4.5310     3.4890    -0.1060 cd         1 9T9       0.453900
     16 C16         -3.8660    -1.0590    -2.2050 c3         1 9T9       0.052200
     17 C17         -3.5750    -2.1730    -1.2080 ca         1 9T9      -0.084300
     18 C18         -4.5330    -2.5110    -0.2240 ca         1 9T9      -0.093000
     19 C19         -4.2230    -3.5330     0.6810 ca         1 9T9       0.054100
     20 C20         -3.0290    -4.1950     0.6360 ca         1 9T9       0.053100
     21 C21         -2.0530    -3.8860    -0.3180 ca         1 9T9      -0.095000
     22 C22         -2.3360    -2.8630    -1.2490 ca         1 9T9      -0.096000
     23 O23         -5.0230    -3.9730     1.6860 os         1 9T9      -0.344100
     24 C24         -4.2320    -5.0660     2.2760 c5         1 9T9       0.372600
     25 O25         -2.9220    -5.1390     1.6060 os         1 9T9      -0.344100
     26 S26         -3.8420     4.9500     0.6080 ss         1 9T9       0.151600
     27 C27         -5.4770     5.4490     0.9940 cd         1 9T9      -0.311000
     28 C28         -6.3840     4.5130     0.5760 cc         1 9T9       0.279900
     29 N29         -5.8600     3.4060    -0.0420 nc         1 9T9      -0.680000
     30 F30          1.3470     3.7320     0.5180 f          1 9T9      -0.152000
     31 N31          3.4280    -0.3600    -0.7930 nu         1 9T9      -0.969200
     32 C32          4.8070    -0.0460    -0.3510 c3         1 9T9       0.225800
     33 C33          5.7940    -1.2200    -0.6160 c3         1 9T9       0.150800
     34 N34          7.2220    -0.9500    -0.2870 n3         1 9T9      -0.712600
     35 C35          8.1280    -2.0460    -0.7530 c6         1 9T9       0.127800
     36 C36          9.6320    -1.7530    -0.4360 c6         1 9T9       0.162800
     37 N37          9.8740    -1.4840     1.0170 n3         1 9T9      -0.711600
     38 C38          8.9740    -0.3760     1.4690 c6         1 9T9       0.162800
     39 C39          7.4650    -0.6560     1.1630 c6         1 9T9       0.127800
     40 C40          9.7800    -2.6980     1.8630 c3         1 9T9       0.150100
     41 H1           3.2970     2.0880     0.2980 ha         1 9T9       0.138000
     42 H2           1.0640    -0.9720    -1.7260 ha         1 9T9       0.130000
     43 H3          -5.4720     1.1260    -1.1830 hn         1 9T9       0.374000
     44 H4          -4.9220    -1.0940    -2.5000 hc         1 9T9       0.064200
     45 H5          -3.3030    -1.2300    -3.1300 hc         1 9T9       0.064200
     46 H6          -5.4870    -1.9920    -0.1640 ha         1 9T9       0.128000
     47 H7          -1.1060    -4.4190    -0.3390 ha         1 9T9       0.134000
     48 H8          -1.5920    -2.6020    -1.9980 ha         1 9T9       0.123000
     49 H9          -4.0870    -4.8790     3.3460 h2         1 9T9       0.065200
     50 H10         -5.6680     6.3870     1.4990 h4         1 9T9       0.161000
     51 H11         -7.4590     4.5740     0.6910 h4         1 9T9       0.039100
     52 H12          3.2770    -1.2600    -1.2510 hn         1 9T9       0.492000
     53 H13          5.1740     0.8440    -0.8820 h1         1 9T9       0.055700
     54 H14          4.8030     0.1840     0.7230 h1         1 9T9       0.055700
     55 H15          5.4460    -2.0970    -0.0540 h1         1 9T9       0.035700
     56 H16          5.7200    -1.4750    -1.6820 h1         1 9T9       0.035700
     57 H18          7.8430    -2.9990    -0.2830 h1         1 9T9       0.036200
     58 H19          8.0230    -2.1850    -1.8390 h1         1 9T9       0.036200
     59 H20         10.2440    -2.6000    -0.7810 h1         1 9T9       0.060700
     60 H21          9.9420    -0.8810    -1.0310 h1         1 9T9       0.060700
     61 H23          9.0950    -0.1930     2.5470 h1         1 9T9       0.060700
     62 H24          9.2560     0.5590     0.9620 h1         1 9T9       0.060700
     63 H25          6.8880     0.2240     1.4800 h1         1 9T9       0.036200
     64 H26          7.1250    -1.4990     1.7830 h1         1 9T9       0.036200
     65 H27         10.4930    -3.4610     1.5230 h1         1 9T9       0.031033
     66 H28         10.0170    -2.4590     2.9080 h1         1 9T9       0.031033
     67 H29          8.7740    -3.1360     1.8330 h1         1 9T9       0.031033
     68 H30         -4.7630    -6.0130     2.1290 h2         1 9T9       0.065200
@<TRIPOS>BOND
     1     1     2 ar  
     2     1     6 ar  
     3     1    41 1   
     4     2     3 ar  
     5     2    31 1   
     6     3     4 ar  
     7     3    42 1   
     8     4     5 ar  
     9     4     7 1   
    10     5     6 ar  
    11     5    10 1   
    12     6    30 1   
    13     7     8 1   
    14     8     9 1   
    15     8    11 2   
    16     9    10 1   
    17     9    13 2   
    18    10    14 2   
    19    11    12 1   
    20    11    16 1   
    21    12    13 1   
    22    12    43 1   
    23    13    15 1   
    24    15    26 1   
    25    15    29 2   
    26    16    17 1   
    27    16    44 1   
    28    16    45 1   
    29    17    18 ar  
    30    17    22 ar  
    31    18    19 ar  
    32    18    46 1   
    33    19    20 ar  
    34    19    23 1   
    35    20    21 ar  
    36    20    25 1   
    37    21    22 ar  
    38    21    47 1   
    39    22    48 1   
    40    23    24 1   
    41    24    25 1   
    42    24    49 1   
    43    24    68 1   
    44    26    27 1   
    45    27    28 2   
    46    27    50 1   
    47    28    29 1   
    48    28    51 1   
    49    31    32 1   
    50    31    52 1   
    51    32    33 1   
    52    32    53 1   
    53    32    54 1   
    54    33    34 1   
    55    33    55 1   
    56    33    56 1   
    57    34    35 1   
    58    34    39 1   
    59    35    36 1   
    60    35    57 1   
    61    35    58 1   
    62    36    37 1   
    63    36    59 1   
    64    36    60 1   
    65    37    38 1   
    66    37    40 1   
    67    38    39 1   
    68    38    61 1   
    69    38    62 1   
    70    39    63 1   
    71    39    64 1   
    72    40    65 1   
    73    40    66 1   
    74    40    67 1   
@<TRIPOS>SUBSTRUCTURE
     1 9T9         1 TEMP              0 ****  ****    0 ROOT
