@<TRIPOS>MOLECULE
9TA
   24    26     1     0     0
SMALL
No Charge or Current Charge


@<TRIPOS>ATOM
      1 C1          -2.5160     1.4030    -0.0430 ca         1 9TA      -0.068000
      2 C2          -3.7350     0.7080    -0.0320 ca         1 9TA      -0.098000
      3 C3          -3.7410    -0.6940    -0.0280 ca         1 9TA      -0.098000
      4 C4          -2.5290    -1.4000    -0.0330 ca         1 9TA      -0.068000
      5 C5           2.5290    -1.4220    -0.0670 ca         1 9TA      -0.068000
      6 C6           3.7480    -0.7260    -0.0780 ca         1 9TA      -0.098000
      7 C7           3.7540     0.6750    -0.0830 ca         1 9TA      -0.098000
      8 C8           2.5410     1.3810    -0.0770 ca         1 9TA      -0.068000
      9 C9           0.0130     1.4790    -0.0600 c          1 9TA       0.591300
     10 O9           0.0180     2.7060    -0.0640 o          1 9TA      -0.513600
     11 C10         -0.0000    -1.4970    -0.0500 c          1 9TA       0.591300
     12 O10         -0.0050    -2.7240    -0.0460 o          1 9TA      -0.513600
     13 C11         -1.2860     0.7060    -0.0490 ca         1 9TA      -0.131600
     14 C12         -1.2920    -0.7130    -0.0440 ca         1 9TA      -0.131600
     15 C13          1.3050     0.6940    -0.0660 ca         1 9TA      -0.131600
     16 C14          1.2990    -0.7240    -0.0610 ca         1 9TA      -0.131600
     17 H1          -2.5330     2.4920    -0.0470 ha         1 9TA       0.138000
     18 H2          -4.6750     1.2560    -0.0280 ha         1 9TA       0.121000
     19 H3          -4.6860    -1.2340    -0.0190 ha         1 9TA       0.121000
     20 H4          -2.5550    -2.4880    -0.0290 ha         1 9TA       0.138000
     21 H5           2.5460    -2.5100    -0.0630 ha         1 9TA       0.138000
     22 H6           4.6880    -1.2750    -0.0820 ha         1 9TA       0.121000
     23 H7           4.6980     1.2150    -0.0910 ha         1 9TA       0.121000
     24 H8           2.5680     2.4700    -0.0810 ha         1 9TA       0.138000
@<TRIPOS>BOND
     1     1     2 ar  
     2     1    13 ar  
     3     1    17 1   
     4     2     3 ar  
     5     2    18 1   
     6     3     4 ar  
     7     3    19 1   
     8     4    14 ar  
     9     4    20 1   
    10     5     6 ar  
    11     5    16 ar  
    12     5    21 1   
    13     6     7 ar  
    14     6    22 1   
    15     7     8 ar  
    16     7    23 1   
    17     8    15 ar  
    18     8    24 1   
    19     9    10 2   
    20     9    13 1   
    21     9    15 1   
    22    11    12 2   
    23    11    14 1   
    24    11    16 1   
    25    13    14 ar  
    26    15    16 ar  
@<TRIPOS>SUBSTRUCTURE
     1 9TA         1 TEMP              0 ****  ****    0 ROOT
