@<TRIPOS>MOLECULE
9TA
   24    26     1     0     0
SMALL
bcc


@<TRIPOS>ATOM
      1 C1          -2.4660     1.3910    -0.0430 ca         1 9TA      -0.086000
      2 C2          -3.6670     0.7020    -0.0330 ca         1 9TA      -0.116000
      3 C3          -3.6730    -0.6880    -0.0280 ca         1 9TA      -0.116000
      4 C4          -2.4780    -1.3880    -0.0330 ca         1 9TA      -0.086000
      5 C5           2.4780    -1.4090    -0.0670 ca         1 9TA      -0.086000
      6 C6           3.6800    -0.7200    -0.0780 ca         1 9TA      -0.116000
      7 C7           3.6860     0.6700    -0.0820 ca         1 9TA      -0.116000
      8 C8           2.4900     1.3690    -0.0760 ca         1 9TA      -0.086000
      9 C9           0.0130     1.4560    -0.0590 c          1 9TA       0.591300
     10 O9           0.0180     2.6690    -0.0640 o          1 9TA      -0.513600
     11 C10         -0.0000    -1.4740    -0.0490 c          1 9TA       0.591300
     12 O10         -0.0050    -2.6880    -0.0450 o          1 9TA      -0.513600
     13 C11         -1.2600     0.6960    -0.0490 ca         1 9TA      -0.131600
     14 C12         -1.2660    -0.7030    -0.0440 ca         1 9TA      -0.131600
     15 C13          1.2790     0.6850    -0.0660 ca         1 9TA      -0.131600
     16 C14          1.2730    -0.7140    -0.0610 ca         1 9TA      -0.131600
     17 H1          -2.4640     2.4720    -0.0470 ha         1 9TA       0.156000
     18 H2          -4.6010     1.2480    -0.0300 ha         1 9TA       0.139000
     19 H3          -4.6110    -1.2270    -0.0200 ha         1 9TA       0.139000
     20 H4          -2.4860    -2.4690    -0.0300 ha         1 9TA       0.156000
     21 H5           2.4770    -2.4910    -0.0640 ha         1 9TA       0.156000
     22 H6           4.6130    -1.2670    -0.0820 ha         1 9TA       0.139000
     23 H7           4.6230     1.2080    -0.0900 ha         1 9TA       0.139000
     24 H8           2.4990     2.4500    -0.0810 ha         1 9TA       0.156000
@<TRIPOS>BOND
     1     1     2 ar  
     2     1    13 ar  
     3     1    17 1   
     4     2     3 ar  
     5     2    18 1   
     6     3     4 ar  
     7     3    19 1   
     8     4    14 ar  
     9     4    20 1   
    10     5     6 ar  
    11     5    16 ar  
    12     5    21 1   
    13     6     7 ar  
    14     6    22 1   
    15     7     8 ar  
    16     7    23 1   
    17     8    15 ar  
    18     8    24 1   
    19     9    10 2   
    20     9    13 1   
    21     9    15 1   
    22    11    12 2   
    23    11    14 1   
    24    11    16 1   
    25    13    14 ar  
    26    15    16 ar  
@<TRIPOS>SUBSTRUCTURE
     1 9TA         1 TEMP              0 ****  ****    0 ROOT
