@<TRIPOS>MOLECULE
9TB
   52    52     1     0     0
SMALL
No Charge or Current Charge


@<TRIPOS>ATOM
      1 OAA          7.4410     1.1270     2.2820 o          1 9TB      -0.776500
      2 CAW          7.0610     0.5400     1.2810 c          1 9TB       0.710000
      3 OAF          7.8230     0.0650     0.4520 o          1 9TB      -0.776500
      4 CAP          5.5470     0.4470     1.0200 c3         1 9TB      -0.198400
      5 CAS          5.0660     1.6780     0.2090 c3         1 9TB      -0.045400
      6 CBE          3.5310     1.7500    -0.0130 c3         1 9TB      -0.040300
      7 CAY          3.1180     3.1010    -0.6780 c          1 9TB       0.711000
      8 OAH          2.4610     3.8940    -0.0180 o          1 9TB      -0.762000
      9 OAC          3.3980     3.2880    -1.8560 o          1 9TB      -0.762000
     10 NAV          3.0230     0.6070    -0.8120 ns         1 9TB      -0.446900
     11 CBA          2.4460    -0.5280    -0.3010 c          1 9TB       0.649100
     12 OAE          2.2570    -0.7230     0.8900 o          1 9TB      -0.671100
     13 N            2.0980    -1.4200    -1.2850 ns         1 9TB      -0.476900
     14 CA           1.4320    -2.7280    -1.0650 c3         1 9TB      -0.033300
     15 C            2.0480    -3.8190    -1.9980 c          1 9TB       0.705000
     16 OXT          2.5320    -4.8160    -1.4800 o          1 9TB      -0.738500
     17 O            2.0920    -3.6060    -3.2030 o          1 9TB      -0.738500
     18 CB          -0.1070    -2.6400    -1.2390 c3         1 9TB      -0.063400
     19 CAN         -0.8170    -1.7190    -0.2200 c3         1 9TB      -0.073400
     20 CAO         -2.3560    -1.7140    -0.3800 c3         1 9TB      -0.154400
     21 CAZ         -3.0260    -0.7890     0.6430 c          1 9TB       0.605100
     22 OAD         -3.1440    -1.0880     1.8240 o          1 9TB      -0.621100
     23 NAT         -3.5160     0.3880     0.1280 ns         1 9TB      -0.511900
     24 CAQ         -4.2260     1.4080     0.9010 c3         1 9TB       0.144300
     25 CBC         -5.7340     1.2310     0.7990 ca         1 9TB      -0.109300
     26 CAL         -6.4620     1.9040    -0.2020 ca         1 9TB      -0.071500
     27 CAJ         -7.8560     1.7360    -0.2960 ca         1 9TB      -0.161500
     28 CBB         -8.5210     0.8950     0.6090 ca         1 9TB       0.153000
     29 FAI         -9.8590     0.7340     0.5170 f          1 9TB      -0.197000
     30 CAK         -7.8030     0.2200     1.6070 ca         1 9TB      -0.161500
     31 CAM         -6.4100     0.3860     1.7030 ca         1 9TB      -0.071500
     32 H2           5.3230    -0.4330     0.4050 hc         1 9TB       0.024200
     33 H3           4.9950     0.4770     1.9670 hc         1 9TB       0.024200
     34 H4           5.3790     2.5870     0.7360 hc         1 9TB       0.034200
     35 H5           5.5750     1.6910    -0.7630 hc         1 9TB       0.034200
     36 H6           3.0450     1.7250     0.9700 h1         1 9TB       0.060700
     37 H8           3.1050     0.6650    -1.8190 hn         1 9TB       0.268500
     38 H9           2.3200    -1.1610    -2.2380 hn         1 9TB       0.261500
     39 H10          1.6390    -3.0500    -0.0360 h1         1 9TB       0.065700
     40 H12         -0.3370    -2.2990    -2.2560 hc         1 9TB       0.027700
     41 H13         -0.5230    -3.6510    -1.1450 hc         1 9TB       0.027700
     42 H14         -0.5590    -2.0400     0.7980 hc         1 9TB       0.063200
     43 H15         -0.4470    -0.6920    -0.3340 hc         1 9TB       0.063200
     44 H16         -2.5960    -1.3840    -1.3980 hc         1 9TB       0.045200
     45 H17         -2.7240    -2.7350    -0.2240 hc         1 9TB       0.045200
     46 H18         -3.3840     0.5420    -0.8640 hn         1 9TB       0.313500
     47 H19         -3.9140     1.3620     1.9530 h1         1 9TB       0.064200
     48 H20         -3.9430     2.3980     0.5190 h1         1 9TB       0.064200
     49 H21         -5.9500     2.5560    -0.9080 ha         1 9TB       0.130000
     50 H22         -8.4180     2.2550    -1.0680 ha         1 9TB       0.121000
     51 H23         -8.3250    -0.4320     2.3040 ha         1 9TB       0.121000
     52 H24         -5.8550    -0.1410     2.4770 ha         1 9TB       0.130000
@<TRIPOS>BOND
     1     1     2 1   
     2     2     3 1   
     3     2     4 1   
     4     4     5 1   
     5     4    32 1   
     6     4    33 1   
     7     5     6 1   
     8     5    34 1   
     9     5    35 1   
    10     6     7 1   
    11     6    10 1   
    12     6    36 1   
    13     7     8 1   
    14     7     9 1   
    15    10    11 1   
    16    10    37 1   
    17    11    12 2   
    18    11    13 1   
    19    13    14 1   
    20    13    38 1   
    21    14    15 1   
    22    14    18 1   
    23    14    39 1   
    24    15    16 1   
    25    15    17 1   
    26    18    19 1   
    27    18    40 1   
    28    18    41 1   
    29    19    20 1   
    30    19    42 1   
    31    19    43 1   
    32    20    21 1   
    33    20    44 1   
    34    20    45 1   
    35    21    22 2   
    36    21    23 1   
    37    23    24 1   
    38    23    46 1   
    39    24    25 1   
    40    24    47 1   
    41    24    48 1   
    42    25    26 ar  
    43    25    31 ar  
    44    26    27 ar  
    45    26    49 1   
    46    27    28 ar  
    47    27    50 1   
    48    28    29 1   
    49    28    30 ar  
    50    30    31 ar  
    51    30    51 1   
    52    31    52 1   
@<TRIPOS>SUBSTRUCTURE
     1 9TB         1 TEMP              0 ****  ****    0 ROOT
