@<TRIPOS>MOLECULE
9TB
   52    52     1     0     0
SMALL
abcg2


@<TRIPOS>ATOM
      1 OAA          7.8030     1.0800    -3.0180 o          1 9TB      -0.776500
      2 CAW          7.1750     1.7350    -2.1590 c          1 9TB       0.710000
      3 OAF          7.1950     2.9740    -2.0210 o          1 9TB      -0.776500
      4 CAP          6.3070     0.9150    -1.1890 c3         1 9TB      -0.198400
      5 CAS          5.5780     1.7140    -0.1220 c3         1 9TB      -0.045400
      6 CBE          4.7650     0.8510     0.8450 c3         1 9TB      -0.040300
      7 CAY          4.2250     1.7110     2.0140 c          1 9TB       0.711000
      8 OAH          5.0880     2.1210     2.8180 o          1 9TB      -0.762000
      9 OAC          3.0050     1.9510     2.0420 o          1 9TB      -0.762000
     10 NAV          3.7250     0.1570     0.1190 ns         1 9TB      -0.446900
     11 CBA          3.0100    -0.8280     0.7280 c          1 9TB       0.649100
     12 OAE          3.4000    -1.3950     1.7460 o          1 9TB      -0.671100
     13 N            1.8260    -1.1400     0.1270 ns         1 9TB      -0.476900
     14 CA           1.2050    -2.4200     0.3830 c3         1 9TB      -0.033300
     15 C            2.0170    -3.6210    -0.1680 c          1 9TB       0.705000
     16 OXT          1.6050    -4.7460     0.1860 o          1 9TB      -0.738500
     17 O            2.9880    -3.3760    -0.9050 o          1 9TB      -0.738500
     18 CB          -0.2110    -2.4210    -0.1930 c3         1 9TB      -0.063400
     19 CAN         -1.1410    -1.4160     0.4720 c3         1 9TB      -0.073400
     20 CAO         -2.5400    -1.4420    -0.1440 c3         1 9TB      -0.154400
     21 CAZ         -3.4800    -0.4990     0.5740 c          1 9TB       0.605100
     22 OAD         -3.7420    -0.6350     1.7630 o          1 9TB      -0.621100
     23 NAT         -3.9780     0.5000    -0.1760 ns         1 9TB      -0.511900
     24 CAQ         -4.8910     1.5070     0.3200 c3         1 9TB       0.144300
     25 CBC         -6.3350     1.1800     0.0320 ca         1 9TB      -0.109300
     26 CAL         -7.0250     1.8370    -0.9810 ca         1 9TB      -0.071500
     27 CAJ         -8.3470     1.5270    -1.2720 ca         1 9TB      -0.161500
     28 CBB         -8.9700     0.5440    -0.5300 ca         1 9TB       0.153000
     29 FAI        -10.2490     0.2350    -0.8010 f          1 9TB      -0.197000
     30 CAK         -8.3200    -0.1310     0.4870 ca         1 9TB      -0.161500
     31 CAM         -7.0010     0.1950     0.7610 ca         1 9TB      -0.071500
     32 H2           5.5930     0.3320    -1.7790 hc         1 9TB       0.024200
     33 H3           6.9470     0.1660    -0.7060 hc         1 9TB       0.024200
     34 H4           6.2980     2.2850     0.4650 hc         1 9TB       0.034200
     35 H5           4.9160     2.4520    -0.5900 hc         1 9TB       0.034200
     36 H6           5.4390     0.1010     1.2700 h1         1 9TB       0.060700
     37 H8           3.2220     0.7300    -0.5420 hn         1 9TB       0.268500
     38 H9           1.7140    -0.8100    -0.8210 hn         1 9TB       0.261500
     39 H10          1.1230    -2.5490     1.4660 h1         1 9TB       0.065700
     40 H12         -0.1650    -2.2290    -1.2720 hc         1 9TB       0.027700
     41 H13         -0.6200    -3.4260    -0.0760 hc         1 9TB       0.027700
     42 H14         -1.2100    -1.6400     1.5400 hc         1 9TB       0.063200
     43 H15         -0.7280    -0.4080     0.3880 hc         1 9TB       0.063200
     44 H16         -2.4790    -1.2050    -1.2090 hc         1 9TB       0.045200
     45 H17         -2.9560    -2.4500    -0.0650 hc         1 9TB       0.045200
     46 H18         -3.7500     0.5260    -1.1560 hn         1 9TB       0.313500
     47 H19         -4.7320     1.6180     1.3910 h1         1 9TB       0.064200
     48 H20         -4.6280     2.4590    -0.1430 h1         1 9TB       0.064200
     49 H21         -6.5280     2.6090    -1.5570 ha         1 9TB       0.130000
     50 H22         -8.8800     2.0420    -2.0610 ha         1 9TB       0.121000
     51 H23         -8.8360    -0.8930     1.0560 ha         1 9TB       0.121000
     52 H24         -6.4830    -0.3240     1.5580 ha         1 9TB       0.130000
@<TRIPOS>BOND
     1     1     2 1   
     2     2     3 1   
     3     2     4 1   
     4     4     5 1   
     5     4    32 1   
     6     4    33 1   
     7     5     6 1   
     8     5    34 1   
     9     5    35 1   
    10     6     7 1   
    11     6    10 1   
    12     6    36 1   
    13     7     8 1   
    14     7     9 1   
    15    10    11 1   
    16    10    37 1   
    17    11    12 2   
    18    11    13 1   
    19    13    14 1   
    20    13    38 1   
    21    14    15 1   
    22    14    18 1   
    23    14    39 1   
    24    15    16 1   
    25    15    17 1   
    26    18    19 1   
    27    18    40 1   
    28    18    41 1   
    29    19    20 1   
    30    19    42 1   
    31    19    43 1   
    32    20    21 1   
    33    20    44 1   
    34    20    45 1   
    35    21    22 2   
    36    21    23 1   
    37    23    24 1   
    38    23    46 1   
    39    24    25 1   
    40    24    47 1   
    41    24    48 1   
    42    25    26 ar  
    43    25    31 ar  
    44    26    27 ar  
    45    26    49 1   
    46    27    28 ar  
    47    27    50 1   
    48    28    29 1   
    49    28    30 ar  
    50    30    31 ar  
    51    30    51 1   
    52    31    52 1   
@<TRIPOS>SUBSTRUCTURE
     1 9TB         1 TEMP              0 ****  ****    0 ROOT
