@<TRIPOS>MOLECULE
9TC
   48    51     1     0     0
SMALL
abcg2


@<TRIPOS>ATOM
      1 N3          17.4370   -31.0290   -29.4530 nu         1 9TC      -0.899100
      2 C4          20.1980   -29.2230   -31.0300 ca         1 9TC       0.309900
      3 N2          20.6450   -27.9880   -31.2490 nb         1 9TC      -0.627000
      4 C7          17.1220   -30.5040   -26.0110 ca         1 9TC       0.186900
      5 C6          17.7840   -30.7980   -28.1680 ca         1 9TC       0.385900
      6 C9          19.4000   -30.4310   -26.6120 ca         1 9TC       0.186900
      7 C13         17.3470   -27.1100   -22.8950 c5         1 9TC      -0.068000
      8 C8          18.4450   -30.3170   -25.6050 ca         1 9TC      -0.320600
      9 N5          19.0920   -30.6510   -27.8830 nb         1 9TC      -0.245500
     10 C18         16.0880   -26.2480   -22.7680 c6         1 9TC      -0.100900
     11 C16         18.1570   -25.3440   -24.5300 c6         1 9TC       0.152600
     12 C1          19.7380   -27.0100   -31.2210 ca         1 9TC       0.285900
     13 C2          18.3960   -27.2740   -30.9750 ca         1 9TC       0.287900
     14 N1          17.9520   -28.5110   -30.7590 nb         1 9TC      -0.638000
     15 C3          18.8520   -29.4950   -30.7860 ca         1 9TC       0.267300
     16 C5          18.3670   -30.9090   -30.5560 c3         1 9TC       0.198500
     17 N4          16.7810   -30.7520   -27.2660 nb         1 9TC      -0.245500
     18 C10         18.8790   -30.1070   -24.1970 c          1 9TC       0.630700
     19 O1          19.8730   -30.7080   -23.7620 o          1 9TC      -0.611100
     20 N6          18.1690   -29.2640   -23.4250 n          1 9TC      -0.412800
     21 C11         18.5790   -29.0150   -22.0340 c5         1 9TC       0.099000
     22 C12         17.6790   -27.8610   -21.5950 c5         1 9TC      -0.087400
     23 C14         17.1670   -28.2870   -23.8700 c5         1 9TC       0.108000
     24 C15         18.5190   -26.2090   -23.3310 c6         1 9TC      -0.100900
     25 O2          16.9860   -24.5650   -24.2880 os         1 9TC      -0.456000
     26 C17         15.8570   -25.3920   -24.0060 c6         1 9TC       0.152600
     27 H6          16.4510   -31.0040   -29.6540 hn         1 9TC       0.513000
     28 H7          16.3120   -30.4770   -25.2910 h4         1 9TC       0.032100
     29 H8          20.4530   -30.3270   -26.3750 h4         1 9TC       0.032100
     30 H21         16.1960   -25.5900   -21.9010 hc         1 9TC       0.055950
     31 H22         15.2140   -26.8820   -22.5930 hc         1 9TC       0.055950
     32 H17         17.9990   -25.9650   -25.4230 h1         1 9TC       0.046700
     33 H18         18.9560   -24.6370   -24.7510 h1         1 9TC       0.046700
     34 H1          20.0840   -25.9980   -31.3930 h4         1 9TC       0.032100
     35 H2          17.6690   -26.4700   -30.9520 h4         1 9TC       0.031100
     36 H5          17.8490   -31.2590   -31.4500 h1         1 9TC       0.071700
     37 H4          19.2240   -31.5610   -30.3940 h1         1 9TC       0.071700
     38 H10         18.4510   -29.9130   -21.4300 h1         1 9TC       0.059200
     39 H9          19.6360   -28.7460   -22.0110 h1         1 9TC       0.059200
     40 H11         18.1610   -27.2210   -20.8570 hc         1 9TC       0.056200
     41 H12         16.7550   -28.2470   -21.1570 hc         1 9TC       0.056200
     42 H14         17.3320   -28.0190   -24.9100 h1         1 9TC       0.051700
     43 H13         16.1580   -28.6970   -23.7760 h1         1 9TC       0.051700
     44 H15         19.4000   -26.8080   -23.5760 hc         1 9TC       0.055950
     45 H16         18.7890   -25.5590   -22.4950 hc         1 9TC       0.055950
     46 H20         15.0120   -24.7180   -23.8610 h1         1 9TC       0.046700
     47 H19         15.6430   -26.0240   -24.8780 h1         1 9TC       0.046700
     48 H3          20.9260   -30.0270   -31.0380 h4         1 9TC       0.035100
@<TRIPOS>BOND
     1     1     5 1   
     2     1    16 1   
     3     1    27 1   
     4     2     3 ar  
     5     2    15 ar  
     6     2    48 1   
     7     3    12 ar  
     8     4     8 ar  
     9     4    17 ar  
    10     4    28 1   
    11     5     9 ar  
    12     5    17 ar  
    13     6     8 ar  
    14     6     9 ar  
    15     6    29 1   
    16     7    10 1   
    17     7    22 1   
    18     7    23 1   
    19     7    24 1   
    20     8    18 1   
    21    10    26 1   
    22    10    30 1   
    23    10    31 1   
    24    11    24 1   
    25    11    25 1   
    26    11    32 1   
    27    11    33 1   
    28    12    13 ar  
    29    12    34 1   
    30    13    14 ar  
    31    13    35 1   
    32    14    15 ar  
    33    15    16 1   
    34    16    36 1   
    35    16    37 1   
    36    18    19 2   
    37    18    20 1   
    38    20    21 1   
    39    20    23 1   
    40    21    22 1   
    41    21    38 1   
    42    21    39 1   
    43    22    40 1   
    44    22    41 1   
    45    23    42 1   
    46    23    43 1   
    47    24    44 1   
    48    24    45 1   
    49    25    26 1   
    50    26    46 1   
    51    26    47 1   
@<TRIPOS>SUBSTRUCTURE
     1 9TC         1 TEMP              0 ****  ****    0 ROOT
