@<TRIPOS>MOLECULE
9TC
   48    51     1     0     0
SMALL
No Charge or Current Charge


@<TRIPOS>ATOM
      1 N3          17.3720   -31.0190   -29.4830 nu         1 9TC      -0.899100
      2 C4          20.0960   -29.3100   -30.8670 ca         1 9TC       0.309900
      3 N2          20.6210   -28.0990   -31.2050 nb         1 9TC      -0.627000
      4 C7          17.2140   -30.3630   -26.0140 ca         1 9TC       0.186900
      5 C6          17.8000   -30.7630   -28.1880 ca         1 9TC       0.385900
      6 C9          19.5090   -30.4340   -26.7010 ca         1 9TC       0.186900
      7 C13         17.3210   -27.1130   -22.7050 c5         1 9TC      -0.068000
      8 C8          18.5730   -30.2370   -25.6710 ca         1 9TC      -0.320600
      9 N5          19.1250   -30.6890   -27.9670 nb         1 9TC      -0.245500
     10 C18         15.9980   -26.2880   -22.6240 c6         1 9TC      -0.100900
     11 C16         18.2740   -25.0490   -23.9440 c6         1 9TC       0.152600
     12 C1          19.7550   -27.2360   -31.8060 ca         1 9TC       0.285900
     13 C2          18.4000   -27.5750   -32.0650 ca         1 9TC       0.287900
     14 N1          17.8740   -28.7860   -31.7300 nb         1 9TC      -0.638000
     15 C3          18.7390   -29.6550   -31.1220 ca         1 9TC       0.267300
     16 C5          18.1980   -31.0370   -30.7230 c3         1 9TC       0.198500
     17 N4          16.8250   -30.6220   -27.2770 nb         1 9TC      -0.245500
     18 C10         19.0440   -29.9790   -24.2740 c          1 9TC       0.630700
     19 O1          20.0800   -30.4930   -23.8730 o          1 9TC      -0.611100
     20 N6          18.2470   -29.2040   -23.4080 n          1 9TC      -0.412800
     21 C11         18.5960   -29.0420   -21.9830 c5         1 9TC       0.099000
     22 C12         17.4700   -28.0950   -21.5040 c5         1 9TC      -0.087400
     23 C14         17.3280   -28.1410   -23.8860 c5         1 9TC       0.108000
     24 C15         18.4900   -26.0710   -22.7980 c6         1 9TC      -0.100900
     25 O2          17.0060   -24.3830   -23.7780 os         1 9TC      -0.456000
     26 C17         15.8750   -25.2790   -23.7920 c6         1 9TC       0.152600
     27 H6          16.3570   -31.0070   -29.6040 hn         1 9TC       0.513000
     28 H7          16.4200   -30.2960   -25.2740 h4         1 9TC       0.032100
     29 H8          20.5810   -30.3750   -26.5210 h4         1 9TC       0.032100
     30 H21         15.9560   -25.7430   -21.6710 hc         1 9TC       0.055950
     31 H22         15.1300   -26.9610   -22.6310 hc         1 9TC       0.055950
     32 H17         18.2990   -25.5480   -24.9230 h1         1 9TC       0.046700
     33 H18         19.0750   -24.2960   -23.9290 h1         1 9TC       0.046700
     34 H1          20.1480   -26.2600   -32.0870 h4         1 9TC       0.032100
     35 H2          17.7300   -26.8650   -32.5490 h4         1 9TC       0.031100
     36 H5          17.5960   -31.4170   -31.5600 h1         1 9TC       0.071700
     37 H4          19.0410   -31.7320   -30.6030 h1         1 9TC       0.071700
     38 H10         18.5840   -29.9980   -21.4430 h1         1 9TC       0.059200
     39 H9          19.5910   -28.5920   -21.8660 h1         1 9TC       0.059200
     40 H11         17.7230   -27.5900   -20.5650 hc         1 9TC       0.056200
     41 H12         16.5430   -28.6560   -21.3280 hc         1 9TC       0.056200
     42 H14         17.6620   -27.6960   -24.8330 h1         1 9TC       0.051700
     43 H13         16.3210   -28.5500   -24.0390 h1         1 9TC       0.051700
     44 H15         19.4540   -26.5730   -22.9530 hc         1 9TC       0.055950
     45 H16         18.5790   -25.5270   -21.8480 hc         1 9TC       0.055950
     46 H20         14.9530   -24.6910   -23.6840 h1         1 9TC       0.046700
     47 H19         15.8350   -25.8040   -24.7580 h1         1 9TC       0.046700
     48 H3          20.7720   -30.0150   -30.3850 h4         1 9TC       0.035100
@<TRIPOS>BOND
     1     1     5 1   
     2     1    16 1   
     3     1    27 1   
     4     2     3 ar  
     5     2    15 ar  
     6     2    48 1   
     7     3    12 ar  
     8     4     8 ar  
     9     4    17 ar  
    10     4    28 1   
    11     5     9 ar  
    12     5    17 ar  
    13     6     8 ar  
    14     6     9 ar  
    15     6    29 1   
    16     7    10 1   
    17     7    22 1   
    18     7    23 1   
    19     7    24 1   
    20     8    18 1   
    21    10    26 1   
    22    10    30 1   
    23    10    31 1   
    24    11    24 1   
    25    11    25 1   
    26    11    32 1   
    27    11    33 1   
    28    12    13 ar  
    29    12    34 1   
    30    13    14 ar  
    31    13    35 1   
    32    14    15 ar  
    33    15    16 1   
    34    16    36 1   
    35    16    37 1   
    36    18    19 2   
    37    18    20 1   
    38    20    21 1   
    39    20    23 1   
    40    21    22 1   
    41    21    38 1   
    42    21    39 1   
    43    22    40 1   
    44    22    41 1   
    45    23    42 1   
    46    23    43 1   
    47    24    44 1   
    48    24    45 1   
    49    25    26 1   
    50    26    46 1   
    51    26    47 1   
@<TRIPOS>SUBSTRUCTURE
     1 9TC         1 TEMP              0 ****  ****    0 ROOT
