@<TRIPOS>MOLECULE
9TE
   42    45     1     0     0
SMALL
No Charge or Current Charge


@<TRIPOS>ATOM
      1 C1           4.2100    -0.7870    -0.6430 ca         1 9TE      -0.178000
      2 C2           3.0030    -0.5310     0.0220 ca         1 9TE       0.163100
      3 C3           2.9870     0.3080     1.1520 ca         1 9TE      -0.216000
      4 C5           5.3830     0.6580     0.9240 ca         1 9TE      -0.227000
      5 C7           7.8330     0.0770    -0.5290 c3         1 9TE       0.149900
      6 C8           0.6280    -0.5040    -0.4440 ca         1 9TE       0.044100
      7 C9          -0.5290    -1.2470    -0.1590 ca         1 9TE       0.020000
      8 C10         -1.7900    -0.6170    -0.1830 ca         1 9TE      -0.365500
      9 C12         -0.7490     1.4750    -0.7920 ca         1 9TE      -0.179000
     10 C13          0.5160     0.8610    -0.7730 ca         1 9TE      -0.036000
     11 C14         -4.2570     0.4680    -0.9770 c6         1 9TE       0.459000
     12 C15         -3.3910     2.7820    -0.3450 cx         1 9TE       0.149500
     13 C16         -4.3000     3.2960     0.7430 cx         1 9TE      -0.125400
     14 C17         -2.8100     3.5050     0.8450 cx         1 9TE      -0.125400
     15 C4           4.1760     0.9050     1.6000 ca         1 9TE      -0.042000
     16 C6           5.4030    -0.1950    -0.2010 ca         1 9TE       0.171100
     17 O1           1.8520    -1.1370    -0.4290 os         1 9TE      -0.245200
     18 O2           6.5590    -0.4780    -0.8990 os         1 9TE      -0.340100
     19 C11         -1.9110     0.7360    -0.4940 ca         1 9TE       0.399000
     20 S1          -3.2460    -1.5390     0.2180 sy         1 9TE       1.150600
     21 N1          -4.4520    -0.4100     0.1260 n7         1 9TE      -0.839300
     22 N2          -3.1860     1.3320    -0.5110 nh         1 9TE      -0.829400
     23 O3          -3.5070    -2.5270    -0.8330 o          1 9TE      -0.526000
     24 O4          -3.1770    -1.9350     1.6250 o          1 9TE      -0.526000
     25 H1           4.2210    -1.4450    -1.5070 ha         1 9TE       0.143000
     26 H2           2.0580     0.4940     1.6850 ha         1 9TE       0.127000
     27 H3           6.2900     1.1310     1.2900 ha         1 9TE       0.119000
     28 H4           8.6150    -0.2760    -1.2130 h1         1 9TE       0.041700
     29 H5           7.8100     1.1740    -0.5770 h1         1 9TE       0.041700
     30 H6           8.1100    -0.2260     0.4890 h1         1 9TE       0.041700
     31 H7          -0.4400    -2.3030     0.0880 ha         1 9TE       0.145000
     32 H8          -0.8220     2.5250    -1.0540 ha         1 9TE       0.124000
     33 H9           1.4010     1.4430    -1.0180 ha         1 9TE       0.131000
     34 H10         -3.9900    -0.0730    -1.9010 h2         1 9TE       0.084700
     35 H11         -5.1710     1.0610    -1.1470 h2         1 9TE       0.084700
     36 H12         -3.4120     3.3300    -1.2890 h1         1 9TE       0.084700
     37 H13         -4.9200     4.1580     0.5130 hc         1 9TE       0.082700
     38 H14         -4.7560     2.5720     1.4130 hc         1 9TE       0.082700
     39 H15         -2.2640     2.9180     1.5790 hc         1 9TE       0.082700
     40 H16         -2.4230     4.5070     0.6820 hc         1 9TE       0.082700
     41 H17          4.1630     1.5570     2.4720 ha         1 9TE       0.111000
     42 H18         -4.1870     0.1820     0.9040 hn         1 9TE       0.486000
@<TRIPOS>BOND
     1     1     2 ar  
     2     1    16 ar  
     3     1    25 1   
     4     2     3 ar  
     5     2    17 1   
     6     3    15 ar  
     7     3    26 1   
     8     4    15 ar  
     9     4    16 ar  
    10     4    27 1   
    11     5    18 1   
    12     5    28 1   
    13     5    29 1   
    14     5    30 1   
    15     6     7 ar  
    16     6    10 ar  
    17     6    17 1   
    18     7     8 ar  
    19     7    31 1   
    20     8    19 ar  
    21     8    20 1   
    22     9    10 ar  
    23     9    19 ar  
    24     9    32 1   
    25    10    33 1   
    26    11    21 1   
    27    11    22 1   
    28    11    34 1   
    29    11    35 1   
    30    12    13 1   
    31    12    14 1   
    32    12    22 1   
    33    12    36 1   
    34    13    14 1   
    35    13    37 1   
    36    13    38 1   
    37    14    39 1   
    38    14    40 1   
    39    15    41 1   
    40    16    18 1   
    41    19    22 1   
    42    20    21 1   
    43    20    23 2   
    44    20    24 2   
    45    21    42 1   
@<TRIPOS>SUBSTRUCTURE
     1 9TE         1 TEMP              0 ****  ****    0 ROOT
