@<TRIPOS>MOLECULE
9TE
   42    45     1     0     0
SMALL
bcc


@<TRIPOS>ATOM
      1 C1           4.2670    -0.4930    -0.9560 ca         1 9TE      -0.196000
      2 C2           3.0010    -0.2000    -0.4760 ca         1 9TE       0.163100
      3 C3           2.8250     0.3610     0.7860 ca         1 9TE      -0.234000
      4 C5           5.2330     0.3400     1.0950 ca         1 9TE      -0.245000
      5 C7           7.7500    -0.3110     0.0320 c3         1 9TE       0.126700
      6 C8           0.7100    -0.0580    -1.0080 ca         1 9TE       0.044100
      7 C9          -0.2340    -0.9320    -0.5190 ca         1 9TE       0.002000
      8 C10         -1.5260    -0.4800    -0.2660 ca         1 9TE      -0.365500
      9 C12         -0.9130     1.7190    -0.9750 ca         1 9TE      -0.197000
     10 C13          0.3640     1.2700    -1.2360 ca         1 9TE      -0.054000
     11 C14         -4.2410     0.3430    -0.0880 c6         1 9TE       0.459000
     12 C15         -3.5350     2.6630    -0.4730 cx         1 9TE       0.149500
     13 C16         -4.4240     3.3750     0.4960 cx         1 9TE      -0.125400
     14 C17         -2.9850     3.7610     0.3840 cx         1 9TE      -0.125400
     15 C4           3.9520     0.6230     1.5490 ca         1 9TE      -0.060000
     16 C6           5.3870    -0.2270    -0.1700 ca         1 9TE       0.171100
     17 O1           1.9660    -0.5150    -1.3080 os         1 9TE      -0.245200
     18 O2           6.5740    -0.5450    -0.7170 os         1 9TE      -0.316900
     19 C11         -1.9060     0.8610    -0.4690 ca         1 9TE       0.260600
     20 S1          -2.6760    -1.6670     0.3420 sy         1 9TE       1.292200
     21 N1          -3.9270    -0.7150     0.8520 n7         1 9TE      -0.784100
     22 N2          -3.1710     1.3130    -0.1790 nh         1 9TE      -0.691000
     23 O3          -3.1510    -2.4660    -0.7740 o          1 9TE      -0.596800
     24 O4          -2.1240    -2.3480     1.5000 o          1 9TE      -0.596800
     25 H1           4.3880    -0.9310    -1.9390 ha         1 9TE       0.161000
     26 H2           1.8430     0.5890     1.1770 ha         1 9TE       0.145000
     27 H3           6.0810     0.5610     1.7270 ha         1 9TE       0.137000
     28 H4           8.5810    -0.6350    -0.5890 h1         1 9TE       0.041700
     29 H5           7.8800     0.7480     0.2690 h1         1 9TE       0.041700
     30 H6           7.7610    -0.8840     0.9630 h1         1 9TE       0.041700
     31 H7           0.0330    -1.9670    -0.3380 ha         1 9TE       0.163000
     32 H8          -1.1470     2.7530    -1.1780 ha         1 9TE       0.142000
     33 H9           1.0970     1.9600    -1.6350 ha         1 9TE       0.149000
     34 H10         -4.4650    -0.1130    -1.0580 h2         1 9TE       0.084700
     35 H11         -5.1420     0.8440     0.2550 h2         1 9TE       0.084700
     36 H12         -3.6810     2.8920    -1.5270 h1         1 9TE       0.084700
     37 H13         -5.1750     4.0370     0.0840 hc         1 9TE       0.082700
     38 H14         -4.7330     2.8470     1.3890 hc         1 9TE       0.082700
     39 H15         -2.3280     3.4750     1.1960 hc         1 9TE       0.082700
     40 H16         -2.7280     4.6950    -0.0980 hc         1 9TE       0.082700
     41 H17          3.8290     1.0610     2.5310 ha         1 9TE       0.129000
     42 H18         -3.7800    -0.3790     1.8000 hn         1 9TE       0.430800
@<TRIPOS>BOND
     1     1     2 ar  
     2     1    16 ar  
     3     1    25 1   
     4     2     3 ar  
     5     2    17 1   
     6     3    15 ar  
     7     3    26 1   
     8     4    15 ar  
     9     4    16 ar  
    10     4    27 1   
    11     5    18 1   
    12     5    28 1   
    13     5    29 1   
    14     5    30 1   
    15     6     7 ar  
    16     6    10 ar  
    17     6    17 1   
    18     7     8 ar  
    19     7    31 1   
    20     8    19 ar  
    21     8    20 1   
    22     9    10 ar  
    23     9    19 ar  
    24     9    32 1   
    25    10    33 1   
    26    11    21 1   
    27    11    22 1   
    28    11    34 1   
    29    11    35 1   
    30    12    13 1   
    31    12    14 1   
    32    12    22 1   
    33    12    36 1   
    34    13    14 1   
    35    13    37 1   
    36    13    38 1   
    37    14    39 1   
    38    14    40 1   
    39    15    41 1   
    40    16    18 1   
    41    19    22 1   
    42    20    21 1   
    43    20    23 2   
    44    20    24 2   
    45    21    42 1   
@<TRIPOS>SUBSTRUCTURE
     1 9TE         1 TEMP              0 ****  ****    0 ROOT
