@<TRIPOS>MOLECULE
9TF
   27    29     1     0     0
SMALL
abcg2


@<TRIPOS>ATOM
      1 C2           4.0810     1.0850    -0.0710 ca         1 9TF      -0.098000
      2 C3           2.8090     1.6290    -0.0250 ca         1 9TF      -0.063000
      3 C4           1.6940     0.7960    -0.0130 ca         1 9TF      -0.128600
      4 C5           1.8620    -0.5930    -0.0480 ca         1 9TF      -0.118600
      5 C6           3.1450    -1.1300    -0.0950 ca         1 9TF      -0.065000
      6 C7           0.6950    -1.5010    -0.0330 c          1 9TF       0.615300
      7 C10         -3.0380    -1.1890     0.0990 ca         1 9TF      -0.177000
      8 C11         -3.2080     0.1720     0.1300 ca         1 9TF       0.180100
      9 C12         -2.0760     1.0360     0.1110 ca         1 9TF       0.091100
     10 C14          0.3440     1.3890     0.0390 c          1 9TF       0.610300
     11 O3          -2.3410     2.3390     0.1430 oh         1 9TF      -0.567100
     12 C13         -0.8060     0.4900     0.0590 ca         1 9TF      -0.173600
     13 O2           0.1970     2.6100     0.0640 o          1 9TF      -0.565100
     14 C1           4.2490    -0.2950    -0.1050 ca         1 9TF      -0.093000
     15 O1           0.8630    -2.7240    -0.0690 o          1 9TF      -0.577100
     16 C8          -0.6270    -0.9190     0.0240 ca         1 9TF      -0.279600
     17 C9          -1.7530    -1.7500     0.0450 ca         1 9TF       0.240100
     18 O5          -1.6680    -3.0730     0.0150 oh         1 9TF      -0.535100
     19 O4          -4.4370     0.6800     0.1780 oh         1 9TF      -0.518100
     20 H1           4.9440     1.7370    -0.0790 ha         1 9TF       0.123000
     21 H2           2.6820     2.7020     0.0010 ha         1 9TF       0.139000
     22 H3           3.2780    -2.2030    -0.1220 ha         1 9TF       0.141000
     23 H4          -3.9030    -1.8400     0.1130 ha         1 9TF       0.155000
     24 H5          -1.4800     2.8190     0.1220 ho         1 9TF       0.527000
     25 H6           5.2440    -0.7190    -0.1410 ha         1 9TF       0.123000
     26 H7          -0.7100    -3.3060    -0.0260 ho         1 9TF       0.520000
     27 H8          -4.4150     1.6460     0.1920 ho         1 9TF       0.496000
@<TRIPOS>BOND
     1     1     2 ar  
     2     1    14 ar  
     3     1    20 1   
     4     2     3 ar  
     5     2    21 1   
     6     3     4 ar  
     7     3    10 1   
     8     4     5 ar  
     9     4     6 1   
    10     5    14 ar  
    11     5    22 1   
    12     6    15 2   
    13     6    16 1   
    14     7     8 ar  
    15     7    17 ar  
    16     7    23 1   
    17     8     9 ar  
    18     8    19 1   
    19     9    11 1   
    20     9    12 ar  
    21    10    12 1   
    22    10    13 2   
    23    11    24 1   
    24    12    16 ar  
    25    14    25 1   
    26    16    17 ar  
    27    17    18 1   
    28    18    26 1   
    29    19    27 1   
@<TRIPOS>SUBSTRUCTURE
     1 9TF         1 TEMP              0 ****  ****    0 ROOT
