@<TRIPOS>MOLECULE
9TF
   27    29     1     0     0
SMALL
No Charge or Current Charge


@<TRIPOS>ATOM
      1 C2           4.1600     1.0980    -0.0780 ca         1 9TF      -0.098000
      2 C3           2.8690     1.6460    -0.0270 ca         1 9TF      -0.063000
      3 C4           1.7290     0.8090    -0.0100 ca         1 9TF      -0.128600
      4 C5           1.9000    -0.5970    -0.0450 ca         1 9TF      -0.118600
      5 C6           3.2070    -1.1350    -0.0950 ca         1 9TF      -0.065000
      6 C7           0.7100    -1.5240    -0.0280 c          1 9TF       0.615300
      7 C10         -3.1100    -1.2210     0.0940 ca         1 9TF      -0.177000
      8 C11         -3.2840     0.1620     0.1280 ca         1 9TF       0.180100
      9 C12         -2.1690     1.0230     0.1120 ca         1 9TF       0.091100
     10 C14          0.3520     1.4210     0.0440 c          1 9TF       0.610300
     11 O3          -2.3900     2.3760     0.1460 oh         1 9TF      -0.567100
     12 C13         -0.8520     0.4930     0.0610 ca         1 9TF      -0.173600
     13 O2           0.2080     2.6410     0.0730 o          1 9TF      -0.565100
     14 C1           4.3290    -0.2920    -0.1120 ca         1 9TF      -0.093000
     15 O1           0.8630    -2.7420    -0.0580 o          1 9TF      -0.577100
     16 C8          -0.6800    -0.9240     0.0270 ca         1 9TF      -0.279600
     17 C9          -1.8230    -1.7630     0.0440 ca         1 9TF       0.240100
     18 O5          -1.7060    -3.1180     0.0120 oh         1 9TF      -0.535100
     19 O4          -4.5410     0.6890     0.1770 oh         1 9TF      -0.518100
     20 H1           5.0290     1.7530    -0.0900 ha         1 9TF       0.123000
     21 H2           2.7590     2.7290    -0.0020 ha         1 9TF       0.139000
     22 H3           3.3590    -2.2130    -0.1220 ha         1 9TF       0.141000
     23 H4          -3.9750    -1.8770     0.1070 ha         1 9TF       0.155000
     24 H5          -1.4980     2.8150     0.1280 ho         1 9TF       0.527000
     25 H6           5.3290    -0.7190    -0.1510 ha         1 9TF       0.123000
     26 H7          -0.7320    -3.3050    -0.0210 ho         1 9TF       0.520000
     27 H8          -4.4200     1.6650     0.1930 ho         1 9TF       0.496000
@<TRIPOS>BOND
     1     1     2 ar  
     2     1    14 ar  
     3     1    20 1   
     4     2     3 ar  
     5     2    21 1   
     6     3     4 ar  
     7     3    10 1   
     8     4     5 ar  
     9     4     6 1   
    10     5    14 ar  
    11     5    22 1   
    12     6    15 2   
    13     6    16 1   
    14     7     8 ar  
    15     7    17 ar  
    16     7    23 1   
    17     8     9 ar  
    18     8    19 1   
    19     9    11 1   
    20     9    12 ar  
    21    10    12 1   
    22    10    13 2   
    23    11    24 1   
    24    12    16 ar  
    25    14    25 1   
    26    16    17 ar  
    27    17    18 1   
    28    18    26 1   
    29    19    27 1   
@<TRIPOS>SUBSTRUCTURE
     1 9TF         1 TEMP              0 ****  ****    0 ROOT
