@<TRIPOS>MOLECULE
9TI
   25    27     1     0     0
SMALL
abcg2


@<TRIPOS>ATOM
      1 C6          -1.2140   -19.7770     3.7900 c3         1 9TI      -0.025900
      2 C4          -2.3580   -19.4610     4.6860 cc         1 9TI       0.118400
      3 N3          -2.4560   -18.2730     5.3230 nc         1 9TI      -0.296600
      4 C2          -3.5770   -18.3230     6.0210 cd         1 9TI      -0.064000
      5 C15         -4.1670   -17.3630     6.8660 cd         1 9TI      -0.075000
      6 C14         -5.3560   -17.6490     7.4710 cc         1 9TI      -0.101000
      7 C13         -5.9900   -18.8950     7.2440 cc         1 9TI      -0.141000
      8 C12         -5.4130   -19.8200     6.4350 cd         1 9TI      -0.113000
      9 N1          -4.2160   -19.5370     5.8460 na         1 9TI       0.141100
     10 C5          -3.4290   -20.2770     4.9880 cd         1 9TI      -0.142300
     11 C7          -3.7430   -21.6150     4.5340 cd         1 9TI      -0.082800
     12 N11         -4.0520   -22.6460     5.3550 na         1 9TI      -0.006200
     13 N10         -4.2720   -23.7820     4.7110 nd         1 9TI      -0.514800
     14 C9          -4.0980   -23.4910     3.4340 cc         1 9TI       0.234900
     15 C8          -3.7660   -22.1400     3.2570 cc         1 9TI      -0.203000
     16 H1          -0.2800   -19.4140     4.2190 hc         1 9TI       0.053033
     17 H2          -1.1220   -20.8480     3.6190 hc         1 9TI       0.053033
     18 H3          -1.3330   -19.2970     2.8160 hc         1 9TI       0.053033
     19 H4          -3.6630   -16.4180     7.0090 ha         1 9TI       0.146000
     20 H5          -5.8230   -16.9240     8.1230 ha         1 9TI       0.127000
     21 H6          -6.9380   -19.1260     7.7090 ha         1 9TI       0.133000
     22 H7          -5.8560   -20.7810     6.2220 h4         1 9TI       0.148000
     23 H8          -4.0810   -22.6340     6.3640 hn         1 9TI       0.370000
     24 H9          -4.2220   -24.2530     2.6800 h4         1 9TI       0.039100
     25 H10         -3.5830   -21.6100     2.3370 ha         1 9TI       0.150000
@<TRIPOS>BOND
     1     1     2 1   
     2     1    16 1   
     3     1    17 1   
     4     1    18 1   
     5     2     3 1   
     6     2    10 2   
     7     3     4 2   
     8     4     5 1   
     9     4     9 1   
    10     5     6 2   
    11     5    19 1   
    12     6     7 1   
    13     6    20 1   
    14     7     8 2   
    15     7    21 1   
    16     8     9 1   
    17     8    22 1   
    18     9    10 1   
    19    10    11 1   
    20    11    12 1   
    21    11    15 2   
    22    12    13 1   
    23    12    23 1   
    24    13    14 2   
    25    14    15 1   
    26    14    24 1   
    27    15    25 1   
@<TRIPOS>SUBSTRUCTURE
     1 9TI         1 TEMP              0 ****  ****    0 ROOT
