@<TRIPOS>MOLECULE
9TI
   25    27     1     0     0
SMALL
No Charge or Current Charge


@<TRIPOS>ATOM
      1 C6          -1.4350   -19.6770     3.5370 c3         1 9TI      -0.025900
      2 C4          -2.5190   -19.4620     4.5600 cc         1 9TI       0.118400
      3 N3          -2.5420   -18.2620     5.2420 nc         1 9TI      -0.296600
      4 C2          -3.5660   -18.3330     6.0700 cd         1 9TI      -0.064000
      5 C15         -4.0160   -17.3230     6.9710 cd         1 9TI      -0.075000
      6 C14         -5.1500   -17.6280     7.6890 cc         1 9TI      -0.101000
      7 C13         -5.8300   -18.8830     7.4860 cc         1 9TI      -0.141000
      8 C12         -5.3890   -19.8600     6.5970 cd         1 9TI      -0.113000
      9 N1          -4.1810   -19.5540     5.9500 na         1 9TI       0.141100
     10 C5          -3.5420   -20.3070     4.9780 cd         1 9TI      -0.142300
     11 C7          -3.8200   -21.6600     4.5180 cd         1 9TI      -0.082800
     12 N11         -4.7760   -22.5590     5.0110 na         1 9TI      -0.006200
     13 N10         -4.7540   -23.7800     4.3310 nd         1 9TI      -0.514800
     14 C9          -3.7910   -23.5990     3.4490 cc         1 9TI       0.234900
     15 C8          -3.1860   -22.3370     3.5190 cc         1 9TI      -0.203000
     16 H1          -0.7510   -18.8210     3.4960 hc         1 9TI       0.053033
     17 H2          -0.8350   -20.5610     3.7800 hc         1 9TI       0.053033
     18 H3          -1.8620   -19.8010     2.5350 hc         1 9TI       0.053033
     19 H4          -3.5060   -16.3700     7.0740 ha         1 9TI       0.146000
     20 H5          -5.5630   -16.9140     8.3960 ha         1 9TI       0.127000
     21 H6          -6.7410   -19.0540     8.0510 ha         1 9TI       0.133000
     22 H7          -5.9030   -20.7860     6.4010 h4         1 9TI       0.148000
     23 H8          -5.4190   -22.4020     5.7830 hn         1 9TI       0.370000
     24 H9          -3.5480   -24.4030     2.7680 h4         1 9TI       0.039100
     25 H10         -2.3830   -22.0190     2.8690 ha         1 9TI       0.150000
@<TRIPOS>BOND
     1     1     2 1   
     2     1    16 1   
     3     1    17 1   
     4     1    18 1   
     5     2     3 1   
     6     2    10 2   
     7     3     4 2   
     8     4     5 1   
     9     4     9 1   
    10     5     6 2   
    11     5    19 1   
    12     6     7 1   
    13     6    20 1   
    14     7     8 2   
    15     7    21 1   
    16     8     9 1   
    17     8    22 1   
    18     9    10 1   
    19    10    11 1   
    20    11    12 1   
    21    11    15 2   
    22    12    13 1   
    23    12    23 1   
    24    13    14 2   
    25    14    15 1   
    26    14    24 1   
    27    15    25 1   
@<TRIPOS>SUBSTRUCTURE
     1 9TI         1 TEMP              0 ****  ****    0 ROOT
