@<TRIPOS>MOLECULE
9TK
   14    14     1     0     0
SMALL
No Charge or Current Charge


@<TRIPOS>ATOM
      1 O81          1.9950    -1.0670    -0.1460 o          1 9TK      -0.704500
      2 C81          1.5480     0.0760    -0.1060 c          1 9TK       0.635500
      3 C83         -2.1910    -0.0300     0.0710 cc         1 9TK      -0.300000
      4 N81         -0.9700    -0.6690     0.0030 na         1 9TK      -0.146500
      5 C88         -0.7860    -2.1290    -0.0290 c3         1 9TK       0.087900
      6 C82          0.0320     0.3050    -0.0300 cc         1 9TK       0.364000
      7 N82         -0.5560     1.5140     0.0170 nd         1 9TK      -0.677000
      8 C84         -1.9130     1.3060     0.0780 cd         1 9TK       0.201900
      9 H84         -3.1370    -0.5550     0.1080 h4         1 9TK       0.122000
     10 H883        -0.2740    -2.4170    -0.9550 h1         1 9TK       0.039367
     11 H882        -0.1880    -2.4450     0.8350 h1         1 9TK       0.039367
     12 H881        -1.7610    -2.6290     0.0100 h1         1 9TK       0.039367
     13 H83         -2.6130     2.1310     0.1250 h4         1 9TK       0.004100
     14 O1           2.3060     1.0440    -0.1280 o          1 9TK      -0.704500
@<TRIPOS>BOND
     1     1     2 1   
     2     2     6 1   
     3     2    14 1   
     4     3     4 1   
     5     3     8 2   
     6     3     9 1   
     7     4     5 1   
     8     4     6 1   
     9     5    10 1   
    10     5    11 1   
    11     5    12 1   
    12     6     7 2   
    13     7     8 1   
    14     8    13 1   
@<TRIPOS>SUBSTRUCTURE
     1 9TK         1 TEMP              0 ****  ****    0 ROOT
