@<TRIPOS>MOLECULE
9TL
  129   128     1     0     0
SMALL
No Charge or Current Charge


@<TRIPOS>ATOM
      1 CBE         14.0480    -8.6100     1.9080 c3         1 9TL      -0.088100
      2 CBF         13.3930    -7.2300     2.1160 c3         1 9TL      -0.074400
      3 CBG         13.5030    -6.3140     0.8770 c3         1 9TL      -0.075400
      4 CBH         12.8510    -4.9300     1.0910 c3         1 9TL      -0.075400
      5 CBI         12.9760    -4.0040    -0.1400 c3         1 9TL      -0.073400
      6 CBJ         12.3400    -2.6140     0.0830 c3         1 9TL      -0.075400
      7 CBK         12.4980    -1.6730    -1.1320 c3         1 9TL      -0.072400
      8 CBL         11.8820    -0.2770    -0.9030 c3         1 9TL      -0.044200
      9 CBM         12.1130     0.6480    -2.0840 c2         1 9TL      -0.215200
     10 CBN         11.2300     0.9830    -3.0410 c2         1 9TL      -0.216200
     11 CBO          9.8030     0.4870    -3.1890 c3         1 9TL      -0.043200
     12 CBP          8.7800     1.4960    -2.6280 c3         1 9TL      -0.072400
     13 CBQ          7.3130     1.0550    -2.8320 c3         1 9TL      -0.074400
     14 CBR          6.2960     2.0670    -2.2600 c3         1 9TL      -0.075400
     15 CBS          4.8270     1.6610    -2.5120 c3         1 9TL      -0.075400
     16 CBT          3.8150     2.6660    -1.9190 c3         1 9TL      -0.068400
     17 CBU          2.3420     2.3010    -2.2220 c3         1 9TL      -0.137400
     18 CBV          1.3800     3.3050    -1.5820 c          1 9TL       0.600100
     19 OBY          1.1240     4.3970    -2.0720 o          1 9TL      -0.497000
     20 OBW          1.0070     2.9110    -0.3220 os         1 9TL      -0.427100
     21 CAW          0.1390     3.7710     0.4550 c3         1 9TL       0.168300
     22 CAX         -1.3260     3.7990    -0.1130 c3         1 9TL       0.209600
     23 OAY         -1.9970     2.5350     0.0640 os         1 9TL      -0.584400
     24 PAZ         -2.0880     1.4360    -1.1180 p5         1 9TL       1.386800
     25 OBX         -1.0920     1.6640    -2.2020 o          1 9TL      -0.805000
     26 OAB         -2.0400     0.0430    -0.5930 o          1 9TL      -0.805000
     27 OBA         -3.5700     1.8130    -1.6320 os         1 9TL      -0.609400
     28 CBB         -4.7650     1.1560    -1.1500 c3         1 9TL       0.209600
     29 CBC         -4.8380     1.1450     0.4050 c3         1 9TL       0.086600
     30 NBD         -4.5840     2.5050     1.0230 nz         1 9TL      -0.969000
     31 CAV          0.2580     3.3570     1.9500 c3         1 9TL       0.170600
     32 OAU         -0.2270     2.0130     2.1260 os         1 9TL      -0.400100
     33 CAT         -0.2390     1.4740     3.3810 c          1 9TL       0.594100
     34 OAA          0.1490     2.0500     4.3890 o          1 9TL      -0.505000
     35 CAS         -0.9670     0.1290     3.3920 c3         1 9TL      -0.148400
     36 CAR         -2.4830     0.3320     3.6260 c3         1 9TL      -0.076400
     37 CAQ         -3.3160    -0.9530     3.4330 c3         1 9TL      -0.073400
     38 CAP         -4.8130    -0.7460     3.7550 c3         1 9TL      -0.084400
     39 CAO         -5.6760    -1.9980     3.4930 c3         1 9TL      -0.074400
     40 CAN         -7.1540    -1.7970     3.8920 c3         1 9TL      -0.075400
     41 CAM         -8.0410    -3.0260     3.6040 c3         1 9TL      -0.040200
     42 CAL         -9.4640    -2.8260     4.0920 c2         1 9TL      -0.222200
     43 CAK        -10.4920    -2.3050     3.4000 c2         1 9TL      -0.209200
     44 CAJ        -10.4630    -1.7650     1.9820 c3         1 9TL      -0.042200
     45 CAI        -11.1520    -2.7210     0.9860 c3         1 9TL      -0.074400
     46 CAH        -11.1480    -2.1960    -0.4680 c3         1 9TL      -0.073400
     47 CAG        -11.8520    -3.1540    -1.4550 c3         1 9TL      -0.075400
     48 CAF        -11.8460    -2.6420    -2.9120 c3         1 9TL      -0.073400
     49 CAE        -12.5590    -3.6010    -3.8920 c3         1 9TL      -0.076400
     50 CAD        -12.5460    -3.0980    -5.3520 c3         1 9TL      -0.074400
     51 CAC        -13.2630    -4.0530    -6.3270 c3         1 9TL      -0.089100
     52 H1          13.9460    -9.2210     2.8130 hc         1 9TL       0.031367
     53 H2          13.5710    -9.1450     1.0770 hc         1 9TL       0.031367
     54 H3          15.1160    -8.5030     1.6850 hc         1 9TL       0.031367
     55 H4          12.3360    -7.3720     2.3710 hc         1 9TL       0.036700
     56 H5          13.8670    -6.7380     2.9740 hc         1 9TL       0.036700
     57 H6          14.5620    -6.1800     0.6220 hc         1 9TL       0.036700
     58 H7          13.0270    -6.8090     0.0200 hc         1 9TL       0.036700
     59 H8          11.7890    -5.0640     1.3340 hc         1 9TL       0.036700
     60 H9          13.3190    -4.4430     1.9550 hc         1 9TL       0.036700
     61 H10         14.0380    -3.8790    -0.3870 hc         1 9TL       0.037200
     62 H11         12.5000    -4.4850    -1.0040 hc         1 9TL       0.037200
     63 H12         11.2730    -2.7370     0.3080 hc         1 9TL       0.037200
     64 H13         12.8010    -2.1450     0.9620 hc         1 9TL       0.037200
     65 H14         13.5640    -1.5610    -1.3620 hc         1 9TL       0.039200
     66 H15         12.0270    -2.1320    -2.0100 hc         1 9TL       0.039200
     67 H16         10.8120    -0.3870    -0.6910 hc         1 9TL       0.044700
     68 H17         12.3230     0.1680    -0.0020 hc         1 9TL       0.044700
     69 H18         13.1170     1.0790    -2.1090 ha         1 9TL       0.164000
     70 H19         11.5340     1.6740    -3.8310 ha         1 9TL       0.166000
     71 H20          9.5890     0.3060    -4.2490 hc         1 9TL       0.042700
     72 H21          9.6690    -0.4780    -2.6860 hc         1 9TL       0.042700
     73 H22          8.9700     1.6400    -1.5570 hc         1 9TL       0.040700
     74 H23          8.9330     2.4680    -3.1130 hc         1 9TL       0.040700
     75 H24          7.1240     0.9210    -3.9040 hc         1 9TL       0.035700
     76 H25          7.1580     0.0800    -2.3540 hc         1 9TL       0.035700
     77 H26          6.4620     2.1740    -1.1810 hc         1 9TL       0.040200
     78 H27          6.4760     3.0520    -2.7110 hc         1 9TL       0.040200
     79 H28          4.6580     1.5740    -3.5920 hc         1 9TL       0.036200
     80 H29          4.6460     0.6690    -2.0780 hc         1 9TL       0.036200
     81 H30          3.9570     2.7220    -0.8320 hc         1 9TL       0.054700
     82 H31          4.0240     3.6670    -2.3190 hc         1 9TL       0.054700
     83 H32          2.1890     2.3030    -3.3070 hc         1 9TL       0.071200
     84 H33          2.1460     1.3050    -1.8090 hc         1 9TL       0.071200
     85 H34          0.5170     4.8010     0.4030 h1         1 9TL       0.064700
     86 H35         -1.8800     4.5820     0.4200 h1         1 9TL       0.044200
     87 H36         -1.3120     4.0940    -1.1700 h1         1 9TL       0.044200
     88 H38         -5.6520     1.6740    -1.5360 h1         1 9TL       0.065700
     89 H39         -4.8100     0.1210    -1.5150 h1         1 9TL       0.065700
     90 H40         -5.8280     0.7910     0.7080 hx         1 9TL       0.092200
     91 H41         -4.0940     0.4420     0.7920 hx         1 9TL       0.092200
     92 H42         -4.7060     2.5270     2.0470 hn         1 9TL       0.510667
     93 H43         -3.6120     2.8140     0.8340 hn         1 9TL       0.510667
     94 H44         -5.1960     3.2440     0.6450 hn         1 9TL       0.510667
     95 H45          1.3080     3.4330     2.2610 h1         1 9TL       0.054700
     96 H46         -0.3260     4.0590     2.5600 h1         1 9TL       0.054700
     97 H47         -0.8430    -0.3460     2.4120 hc         1 9TL       0.077200
     98 H48         -0.5590    -0.5040     4.1880 hc         1 9TL       0.077200
     99 H49         -2.6400     0.7220     4.6400 hc         1 9TL       0.053200
    100 H50         -2.8520     1.0970     2.9310 hc         1 9TL       0.053200
    101 H51         -3.2120    -1.2960     2.3960 hc         1 9TL       0.023700
    102 H52         -2.9160    -1.7460     4.0770 hc         1 9TL       0.023700
    103 H53         -4.9130    -0.4550     4.8090 hc         1 9TL       0.043200
    104 H54         -5.2020     0.0870     3.1570 hc         1 9TL       0.043200
    105 H55         -5.6190    -2.2590     2.4280 hc         1 9TL       0.033700
    106 H56         -5.2640    -2.8460     4.0540 hc         1 9TL       0.033700
    107 H57         -7.2060    -1.5620     4.9630 hc         1 9TL       0.042200
    108 H58         -7.5600    -0.9300     3.3560 hc         1 9TL       0.042200
    109 H59         -8.0270    -3.2350     2.5280 hc         1 9TL       0.044200
    110 H60         -7.6070    -3.9090     4.0890 hc         1 9TL       0.044200
    111 H61         -9.6260    -3.1690     5.1170 ha         1 9TL       0.168000
    112 H62        -11.4720    -2.2260     3.8760 ha         1 9TL       0.169000
    113 H63        -10.9640    -0.7900     1.9520 hc         1 9TL       0.042200
    114 H64         -9.4340    -1.5860     1.6490 hc         1 9TL       0.042200
    115 H65        -10.6480    -3.6940     1.0190 hc         1 9TL       0.041700
    116 H66        -12.1880    -2.8860     1.3070 hc         1 9TL       0.041700
    117 H67        -11.6440    -1.2170    -0.4990 hc         1 9TL       0.035700
    118 H68        -10.1110    -2.0410    -0.7920 hc         1 9TL       0.035700
    119 H69        -11.3610    -4.1350    -1.4170 hc         1 9TL       0.038700
    120 H70        -12.8910    -3.3040    -1.1310 hc         1 9TL       0.038700
    121 H71        -12.3340    -1.6590    -2.9510 hc         1 9TL       0.036200
    122 H72        -10.8080    -2.4980    -3.2390 hc         1 9TL       0.036200
    123 H73        -12.0770    -4.5860    -3.8480 hc         1 9TL       0.037700
    124 H74        -13.5990    -3.7380    -3.5690 hc         1 9TL       0.037700
    125 H75        -13.0250    -2.1120    -5.4020 hc         1 9TL       0.036200
    126 H76        -11.5080    -2.9670    -5.6820 hc         1 9TL       0.036200
    127 H77        -14.3170    -4.1750    -6.0460 hc         1 9TL       0.032033
    128 H78        -13.2260    -3.6550    -7.3490 hc         1 9TL       0.032033
    129 H79        -12.7870    -5.0410    -6.3260 hc         1 9TL       0.032033
@<TRIPOS>BOND
     1     1     2 1   
     2     1    52 1   
     3     1    53 1   
     4     1    54 1   
     5     2     3 1   
     6     2    55 1   
     7     2    56 1   
     8     3     4 1   
     9     3    57 1   
    10     3    58 1   
    11     4     5 1   
    12     4    59 1   
    13     4    60 1   
    14     5     6 1   
    15     5    61 1   
    16     5    62 1   
    17     6     7 1   
    18     6    63 1   
    19     6    64 1   
    20     7     8 1   
    21     7    65 1   
    22     7    66 1   
    23     8     9 1   
    24     8    67 1   
    25     8    68 1   
    26     9    10 2   
    27     9    69 1   
    28    10    11 1   
    29    10    70 1   
    30    11    12 1   
    31    11    71 1   
    32    11    72 1   
    33    12    13 1   
    34    12    73 1   
    35    12    74 1   
    36    13    14 1   
    37    13    75 1   
    38    13    76 1   
    39    14    15 1   
    40    14    77 1   
    41    14    78 1   
    42    15    16 1   
    43    15    79 1   
    44    15    80 1   
    45    16    17 1   
    46    16    81 1   
    47    16    82 1   
    48    17    18 1   
    49    17    83 1   
    50    17    84 1   
    51    18    19 2   
    52    18    20 1   
    53    20    21 1   
    54    21    22 1   
    55    21    31 1   
    56    21    85 1   
    57    22    23 1   
    58    22    86 1   
    59    22    87 1   
    60    23    24 1   
    61    24    25 1   
    62    24    26 1   
    63    24    27 1   
    64    27    28 1   
    65    28    29 1   
    66    28    88 1   
    67    28    89 1   
    68    29    30 1   
    69    29    90 1   
    70    29    91 1   
    71    30    92 1   
    72    30    93 1   
    73    30    94 1   
    74    31    32 1   
    75    31    95 1   
    76    31    96 1   
    77    32    33 1   
    78    33    34 2   
    79    33    35 1   
    80    35    36 1   
    81    35    97 1   
    82    35    98 1   
    83    36    37 1   
    84    36    99 1   
    85    36   100 1   
    86    37    38 1   
    87    37   101 1   
    88    37   102 1   
    89    38    39 1   
    90    38   103 1   
    91    38   104 1   
    92    39    40 1   
    93    39   105 1   
    94    39   106 1   
    95    40    41 1   
    96    40   107 1   
    97    40   108 1   
    98    41    42 1   
    99    41   109 1   
   100    41   110 1   
   101    42    43 2   
   102    42   111 1   
   103    43    44 1   
   104    43   112 1   
   105    44    45 1   
   106    44   113 1   
   107    44   114 1   
   108    45    46 1   
   109    45   115 1   
   110    45   116 1   
   111    46    47 1   
   112    46   117 1   
   113    46   118 1   
   114    47    48 1   
   115    47   119 1   
   116    47   120 1   
   117    48    49 1   
   118    48   121 1   
   119    48   122 1   
   120    49    50 1   
   121    49   123 1   
   122    49   124 1   
   123    50    51 1   
   124    50   125 1   
   125    50   126 1   
   126    51   127 1   
   127    51   128 1   
   128    51   129 1   
@<TRIPOS>SUBSTRUCTURE
     1 9TL         1 TEMP              0 ****  ****    0 ROOT
