@<TRIPOS>MOLECULE
9TL
  129   128     1     0     0
SMALL
abcg2


@<TRIPOS>ATOM
      1 CBE         18.2380    -7.3870     2.2210 c3         1 9TL      -0.088100
      2 CBF         17.1890    -6.2840     2.2670 c3         1 9TL      -0.074400
      3 CBG         16.7780    -5.7940     0.8840 c3         1 9TL      -0.075400
      4 CBH         15.7380    -4.6810     0.9250 c3         1 9TL      -0.075400
      5 CBI         15.3330    -4.1770    -0.4540 c3         1 9TL      -0.073400
      6 CBJ         14.3140    -3.0460    -0.4010 c3         1 9TL      -0.075400
      7 CBK         13.9220    -2.5150    -1.7740 c3         1 9TL      -0.072400
      8 CBL         12.9400    -1.3460    -1.6940 c3         1 9TL      -0.044200
      9 CBM         12.6400    -0.7480    -3.0330 c2         1 9TL      -0.215200
     10 CBN         11.4440    -0.5620    -3.5890 c2         1 9TL      -0.216200
     11 CBO         10.1080    -0.8820    -2.9900 c3         1 9TL      -0.043200
     12 CBP          9.4330     0.3610    -2.4060 c3         1 9TL      -0.072400
     13 CBQ          8.0330     0.0850    -1.8720 c3         1 9TL      -0.074400
     14 CBR          7.3720     1.3190    -1.2730 c3         1 9TL      -0.075400
     15 CBS          5.9700     1.0550    -0.7380 c3         1 9TL      -0.075400
     16 CBT          5.3270     2.3000    -0.1420 c3         1 9TL      -0.068400
     17 CBU          3.9300     2.0220     0.3900 c3         1 9TL      -0.137400
     18 CBV          3.2620     3.2310     0.9870 c          1 9TL       0.600100
     19 OBY          3.7330     4.3390     1.0200 o          1 9TL      -0.497000
     20 OBW          2.0650     2.9250     1.4840 os         1 9TL      -0.427100
     21 CAW          1.2820     3.9590     2.0900 c3         1 9TL       0.168300
     22 CAX          0.5180     4.7570     1.0470 c3         1 9TL       0.209600
     23 OAY         -0.1990     3.8920     0.1980 os         1 9TL      -0.584400
     24 PAZ         -1.3640     4.4750    -0.7890 p5         1 9TL       1.386800
     25 OBX         -2.0350     5.6510    -0.1540 o          1 9TL      -0.805000
     26 OAB         -0.8620     4.5420    -2.1970 o          1 9TL      -0.805000
     27 OBA         -2.3380     3.1430    -0.6490 os         1 9TL      -0.609400
     28 CBB         -3.0940     2.7200    -1.7630 c3         1 9TL       0.209600
     29 CBC         -4.2170     1.8620    -1.2340 c3         1 9TL       0.086600
     30 NBD         -5.0450     2.6510    -0.2820 nz         1 9TL      -0.969000
     31 CAV          0.4270     3.3150     3.1560 c3         1 9TL       0.170600
     32 OAU         -0.4480     2.3580     2.5680 os         1 9TL      -0.400100
     33 CAT         -1.5290     1.9940     3.2450 c          1 9TL       0.594100
     34 OAA         -1.7920     2.4030     4.3490 o          1 9TL      -0.505000
     35 CAS         -2.3630     1.0130     2.4660 c3         1 9TL      -0.148400
     36 CAR         -3.7470     0.8050     3.0600 c3         1 9TL      -0.076400
     37 CAQ         -4.5870    -0.1970     2.2790 c3         1 9TL      -0.073400
     38 CAP         -5.9680    -0.3880     2.8900 c3         1 9TL      -0.084400
     39 CAO         -6.8560    -1.3600     2.1240 c3         1 9TL      -0.074400
     40 CAN         -8.2140    -1.5450     2.7890 c3         1 9TL      -0.075400
     41 CAM         -9.1140    -2.5560     2.0780 c3         1 9TL      -0.040200
     42 CAL        -10.4080    -2.7370     2.8100 c2         1 9TL      -0.222200
     43 CAK        -11.6460    -2.5490     2.3570 c2         1 9TL      -0.209200
     44 CAJ        -12.0830    -2.1700     0.9760 c3         1 9TL      -0.042200
     45 CAI        -13.1080    -3.1590     0.4200 c3         1 9TL      -0.074400
     46 CAH        -13.6420    -2.7720    -0.9530 c3         1 9TL      -0.073400
     47 CAG        -14.6980    -3.7420    -1.4680 c3         1 9TL      -0.075400
     48 CAF        -15.2520    -3.3730    -2.8380 c3         1 9TL      -0.073400
     49 CAE        -16.3180    -4.3430    -3.3300 c3         1 9TL      -0.076400
     50 CAD        -16.8860    -3.9810    -4.6970 c3         1 9TL      -0.074400
     51 CAC        -17.9470    -4.9630    -5.1740 c3         1 9TL      -0.089100
     52 H1          18.5160    -7.7190     3.2220 hc         1 9TL       0.031367
     53 H2          17.8710    -8.2590     1.6760 hc         1 9TL       0.031367
     54 H3          19.1470    -7.0480     1.7210 hc         1 9TL       0.031367
     55 H4          16.3050    -6.6430     2.8020 hc         1 9TL       0.036700
     56 H5          17.5720    -5.4400     2.8500 hc         1 9TL       0.036700
     57 H6          17.6650    -5.4410     0.3470 hc         1 9TL       0.036700
     58 H7          16.3880    -6.6370     0.3020 hc         1 9TL       0.036700
     59 H8          14.8480    -5.0360     1.4580 hc         1 9TL       0.036700
     60 H9          16.1280    -3.8440     1.5140 hc         1 9TL       0.036700
     61 H10         16.2240    -3.8350    -0.9910 hc         1 9TL       0.037200
     62 H11         14.9270    -5.0080    -1.0410 hc         1 9TL       0.037200
     63 H12         13.4170    -3.3880     0.1270 hc         1 9TL       0.037200
     64 H13         14.7200    -2.2220     0.1970 hc         1 9TL       0.037200
     65 H14         14.8210    -2.1940    -2.3100 hc         1 9TL       0.039200
     66 H15         13.4820    -3.3210    -2.3700 hc         1 9TL       0.039200
     67 H16         12.0250    -1.6680    -1.1900 hc         1 9TL       0.044700
     68 H17         13.3800    -0.5700    -1.0560 hc         1 9TL       0.044700
     69 H18         13.5130    -0.4290    -3.5980 ha         1 9TL       0.164000
     70 H19         11.4130    -0.0890    -4.5670 ha         1 9TL       0.166000
     71 H20          9.4600    -1.3060    -3.7630 hc         1 9TL       0.042700
     72 H21         10.1970    -1.6430    -2.2120 hc         1 9TL       0.042700
     73 H22         10.0600     0.7610    -1.6020 hc         1 9TL       0.040700
     74 H23          9.3820     1.1420    -3.1710 hc         1 9TL       0.040700
     75 H24          7.4070    -0.3090    -2.6800 hc         1 9TL       0.035700
     76 H25          8.0830    -0.7050    -1.1140 hc         1 9TL       0.035700
     77 H26          8.0000     1.7100    -0.4640 hc         1 9TL       0.040200
     78 H27          7.3270     2.1100    -2.0300 hc         1 9TL       0.040200
     79 H28          5.3400     0.6670    -1.5460 hc         1 9TL       0.036200
     80 H29          6.0140     0.2660     0.0200 hc         1 9TL       0.036200
     81 H30          5.9590     2.6840     0.6630 hc         1 9TL       0.054700
     82 H31          5.2830     3.0850    -0.9020 hc         1 9TL       0.054700
     83 H32          3.2860     1.6390    -0.4090 hc         1 9TL       0.071200
     84 H33          3.9550     1.2340     1.1480 hc         1 9TL       0.071200
     85 H34          1.9300     4.6650     2.6180 h1         1 9TL       0.064700
     86 H35         -0.1430     5.4510     1.5760 h1         1 9TL       0.044200
     87 H36          1.2260     5.3640     0.4740 h1         1 9TL       0.044200
     88 H38         -3.5090     3.5590    -2.3310 h1         1 9TL       0.065700
     89 H39         -2.5000     2.1190    -2.4550 h1         1 9TL       0.065700
     90 H40         -4.8660     1.5180    -2.0350 hx         1 9TL       0.092200
     91 H41         -3.8340     0.9960    -0.6960 hx         1 9TL       0.092200
     92 H42         -5.6940     2.0710     0.2480 hn         1 9TL       0.510667
     93 H43         -4.4570     3.1550     0.3850 hn         1 9TL       0.510667
     94 H44         -5.6130     3.3510    -0.7630 hn         1 9TL       0.510667
     95 H45          1.0610     2.8280     3.9010 h1         1 9TL       0.054700
     96 H46         -0.1360     4.1020     3.6630 h1         1 9TL       0.054700
     97 H47         -2.4150     1.3540     1.4280 hc         1 9TL       0.077200
     98 H48         -1.8160     0.0640     2.4310 hc         1 9TL       0.077200
     99 H49         -3.6540     0.4590     4.0920 hc         1 9TL       0.053200
    100 H50         -4.2780     1.7610     3.1080 hc         1 9TL       0.053200
    101 H51         -4.6910     0.1260     1.2350 hc         1 9TL       0.023700
    102 H52         -4.0660    -1.1590     2.2310 hc         1 9TL       0.023700
    103 H53         -5.8520    -0.7410     3.9210 hc         1 9TL       0.043200
    104 H54         -6.4720     0.5820     2.9610 hc         1 9TL       0.043200
    105 H55         -6.9950    -1.0020     1.0980 hc         1 9TL       0.033700
    106 H56         -6.3530    -2.3290     2.0430 hc         1 9TL       0.033700
    107 H57         -8.0650    -1.8670     3.8250 hc         1 9TL       0.042200
    108 H58         -8.7300    -0.5810     2.8430 hc         1 9TL       0.042200
    109 H59         -9.2790    -2.2430     1.0440 hc         1 9TL       0.044200
    110 H60         -8.5880    -3.5160     2.0290 hc         1 9TL       0.044200
    111 H61        -10.3000    -3.0310     3.8510 ha         1 9TL       0.168000
    112 H62        -12.4600    -2.7000     3.0620 ha         1 9TL       0.169000
    113 H63        -12.5420    -1.1740     1.0040 hc         1 9TL       0.042200
    114 H64        -11.2340    -2.0970     0.2930 hc         1 9TL       0.042200
    115 H65        -12.6590    -4.1570     0.3690 hc         1 9TL       0.041700
    116 H66        -13.9440    -3.2380     1.1230 hc         1 9TL       0.041700
    117 H67        -14.0660    -1.7630    -0.9060 hc         1 9TL       0.035700
    118 H68        -12.8140    -2.7210    -1.6680 hc         1 9TL       0.035700
    119 H69        -14.2750    -4.7520    -1.5090 hc         1 9TL       0.038700
    120 H70        -15.5230    -3.7900    -0.7470 hc         1 9TL       0.038700
    121 H71        -15.6700    -2.3610    -2.8010 hc         1 9TL       0.036200
    122 H72        -14.4320    -3.3350    -3.5640 hc         1 9TL       0.036200
    123 H73        -15.8990    -5.3550    -3.3690 hc         1 9TL       0.037700
    124 H74        -17.1350    -4.3840    -2.6000 hc         1 9TL       0.037700
    125 H75        -17.3090    -2.9730    -4.6570 hc         1 9TL       0.036200
    126 H76        -16.0730    -3.9390    -5.4280 hc         1 9TL       0.036200
    127 H77        -18.7840    -5.0110    -4.4750 hc         1 9TL       0.032033
    128 H78        -18.3470    -4.6820    -6.1490 hc         1 9TL       0.032033
    129 H79        -17.5380    -5.9710    -5.2630 hc         1 9TL       0.032033
@<TRIPOS>BOND
     1     1     2 1   
     2     1    52 1   
     3     1    53 1   
     4     1    54 1   
     5     2     3 1   
     6     2    55 1   
     7     2    56 1   
     8     3     4 1   
     9     3    57 1   
    10     3    58 1   
    11     4     5 1   
    12     4    59 1   
    13     4    60 1   
    14     5     6 1   
    15     5    61 1   
    16     5    62 1   
    17     6     7 1   
    18     6    63 1   
    19     6    64 1   
    20     7     8 1   
    21     7    65 1   
    22     7    66 1   
    23     8     9 1   
    24     8    67 1   
    25     8    68 1   
    26     9    10 2   
    27     9    69 1   
    28    10    11 1   
    29    10    70 1   
    30    11    12 1   
    31    11    71 1   
    32    11    72 1   
    33    12    13 1   
    34    12    73 1   
    35    12    74 1   
    36    13    14 1   
    37    13    75 1   
    38    13    76 1   
    39    14    15 1   
    40    14    77 1   
    41    14    78 1   
    42    15    16 1   
    43    15    79 1   
    44    15    80 1   
    45    16    17 1   
    46    16    81 1   
    47    16    82 1   
    48    17    18 1   
    49    17    83 1   
    50    17    84 1   
    51    18    19 2   
    52    18    20 1   
    53    20    21 1   
    54    21    22 1   
    55    21    31 1   
    56    21    85 1   
    57    22    23 1   
    58    22    86 1   
    59    22    87 1   
    60    23    24 1   
    61    24    25 1   
    62    24    26 1   
    63    24    27 1   
    64    27    28 1   
    65    28    29 1   
    66    28    88 1   
    67    28    89 1   
    68    29    30 1   
    69    29    90 1   
    70    29    91 1   
    71    30    92 1   
    72    30    93 1   
    73    30    94 1   
    74    31    32 1   
    75    31    95 1   
    76    31    96 1   
    77    32    33 1   
    78    33    34 2   
    79    33    35 1   
    80    35    36 1   
    81    35    97 1   
    82    35    98 1   
    83    36    37 1   
    84    36    99 1   
    85    36   100 1   
    86    37    38 1   
    87    37   101 1   
    88    37   102 1   
    89    38    39 1   
    90    38   103 1   
    91    38   104 1   
    92    39    40 1   
    93    39   105 1   
    94    39   106 1   
    95    40    41 1   
    96    40   107 1   
    97    40   108 1   
    98    41    42 1   
    99    41   109 1   
   100    41   110 1   
   101    42    43 2   
   102    42   111 1   
   103    43    44 1   
   104    43   112 1   
   105    44    45 1   
   106    44   113 1   
   107    44   114 1   
   108    45    46 1   
   109    45   115 1   
   110    45   116 1   
   111    46    47 1   
   112    46   117 1   
   113    46   118 1   
   114    47    48 1   
   115    47   119 1   
   116    47   120 1   
   117    48    49 1   
   118    48   121 1   
   119    48   122 1   
   120    49    50 1   
   121    49   123 1   
   122    49   124 1   
   123    50    51 1   
   124    50   125 1   
   125    50   126 1   
   126    51   127 1   
   127    51   128 1   
   128    51   129 1   
@<TRIPOS>SUBSTRUCTURE
     1 9TL         1 TEMP              0 ****  ****    0 ROOT
