@<TRIPOS>MOLECULE
9TM
   36    36     1     0     0
SMALL
No Charge or Current Charge


@<TRIPOS>ATOM
      1 O1B         24.1040    21.1540    64.4940 o          1 9TM      -0.557000
      2 C1          23.4810    20.1010    64.4120 c          1 9TM       0.702000
      3 O1A         22.3150    19.9740    64.7670 o          1 9TM      -0.557000
      4 C2          24.1710    18.9410    63.8430 c2         1 9TM       0.197900
      5 C3          23.4630    17.5820    63.7820 c6         1 9TM       0.134500
      6 F1          23.6590    16.8760    64.9930 f          1 9TM      -0.212000
      7 O6          25.5030    18.9900    63.4650 os         1 9TM      -0.224100
      8 C6          25.9850    18.1600    62.3810 c6         1 9TM       0.096300
      9 C7          27.5390    18.3520    62.2840 c3         1 9TM       0.153300
     10 C8          27.9780    19.8390    62.0690 c3         1 9TM       0.177300
     11 C9          29.5040    20.0060    61.8920 c3         1 9TM      -0.088100
     12 O8          27.3320    20.3800    60.9030 oh         1 9TM      -0.673000
     13 O7          28.2060    17.8030    63.4390 oh         1 9TM      -0.658000
     14 C5          25.5240    16.6850    62.5860 c6         1 9TM       0.076700
     15 C4          23.9710    16.6910    62.6090 c6         1 9TM       0.131300
     16 O4          23.4570    15.3440    62.6920 oh         1 9TM      -0.625000
     17 N5          26.0470    15.7600    61.5540 ns         1 9TM      -0.497900
     18 C10         27.2430    15.0840    61.6220 c          1 9TM       0.610100
     19 O10         28.0310    15.2560    62.5410 o          1 9TM      -0.619100
     20 C11         27.5130    14.1260    60.4740 c3         1 9TM      -0.171100
     21 H3          22.3790    17.7290    63.6710 h1         1 9TM       0.118700
     22 H4          25.5460    18.5340    61.4440 h1         1 9TM       0.089700
     23 H5          27.8690    17.8070    61.3890 h1         1 9TM       0.058700
     24 H6          27.6770    20.4130    62.9570 h1         1 9TM       0.064700
     25 H7          30.0400    19.6670    62.7860 hc         1 9TM       0.051700
     26 H8          29.8640    19.4250    61.0350 hc         1 9TM       0.051700
     27 H9          29.7630    21.0590    61.7290 hc         1 9TM       0.051700
     28 H10         27.5630    21.3340    60.8600 ho         1 9TM       0.450000
     29 H11         28.2580    16.8220    63.2740 ho         1 9TM       0.485000
     30 H12         25.8780    16.3380    63.5700 h1         1 9TM       0.127700
     31 H13         23.6240    17.1470    61.6680 h1         1 9TM       0.055700
     32 H14         22.4820    15.3860    62.5730 ho         1 9TM       0.462000
     33 H15         25.4420    15.5190    60.7770 hn         1 9TM       0.324500
     34 H16         26.6860    13.4120    60.4040 hc         1 9TM       0.070700
     35 H17         27.4320    14.6730    59.5270 hc         1 9TM       0.070700
     36 H18         28.4800    13.6200    60.5680 hc         1 9TM       0.070700
@<TRIPOS>BOND
     1     1     2 1   
     2     2     3 1   
     3     2     4 2   
     4     4     5 1   
     5     4     7 1   
     6     5     6 1   
     7     5    15 1   
     8     5    21 1   
     9     7     8 1   
    10     8     9 1   
    11     8    14 1   
    12     8    22 1   
    13     9    10 1   
    14     9    13 1   
    15     9    23 1   
    16    10    11 1   
    17    10    12 1   
    18    10    24 1   
    19    11    25 1   
    20    11    26 1   
    21    11    27 1   
    22    12    28 1   
    23    13    29 1   
    24    14    15 1   
    25    14    17 1   
    26    14    30 1   
    27    15    16 1   
    28    15    31 1   
    29    16    32 1   
    30    17    18 1   
    31    17    33 1   
    32    18    19 2   
    33    18    20 1   
    34    20    34 1   
    35    20    35 1   
    36    20    36 1   
@<TRIPOS>SUBSTRUCTURE
     1 9TM         1 TEMP              0 ****  ****    0 ROOT
