@<TRIPOS>MOLECULE
9TM
   36    36     1     0     0
SMALL
abcg2


@<TRIPOS>ATOM
      1 O1B         23.8570    20.8640    65.2830 o          1 9TM      -0.557000
      2 C1          23.6530    20.2360    64.2620 c          1 9TM       0.702000
      3 O1A         22.8770    20.3700    63.2760 o          1 9TM      -0.557000
      4 C2          24.3310    18.9970    63.7560 c2         1 9TM       0.197900
      5 C3          23.6450    17.6510    63.8280 c6         1 9TM       0.134500
      6 F1          24.1150    17.1140    65.0370 f          1 9TM      -0.212000
      7 O6          25.4550    19.1400    63.1860 os         1 9TM      -0.224100
      8 C6          26.0300    18.1550    62.2230 c6         1 9TM       0.096300
      9 C7          27.5450    18.3310    62.2760 c3         1 9TM       0.153300
     10 C8          27.9910    19.7980    62.1600 c3         1 9TM       0.177300
     11 C9          29.4870    19.8950    61.9310 c3         1 9TM      -0.088100
     12 O8          27.3330    20.4290    61.0550 oh         1 9TM      -0.673000
     13 O7          28.0890    17.7990    63.4690 oh         1 9TM      -0.658000
     14 C5          25.5460    16.7350    62.5310 c6         1 9TM       0.076700
     15 C4          24.0270    16.7260    62.6770 c6         1 9TM       0.131300
     16 O4          23.5990    15.4080    62.9320 oh         1 9TM      -0.625000
     17 N5          25.9800    15.8350    61.4880 ns         1 9TM      -0.497900
     18 C10         27.1060    15.0960    61.5780 c          1 9TM       0.610100
     19 O10         27.8820    15.1910    62.5350 o          1 9TM      -0.619100
     20 C11         27.3720    14.1470    60.4420 c3         1 9TM      -0.171100
     21 H3          22.5680    17.7750    63.9120 h1         1 9TM       0.118700
     22 H4          25.6480    18.4870    61.2580 h1         1 9TM       0.089700
     23 H5          27.9300    17.7960    61.4010 h1         1 9TM       0.058700
     24 H6          27.7270    20.3090    63.0890 h1         1 9TM       0.064700
     25 H7          30.0290    19.3830    62.7250 hc         1 9TM       0.051700
     26 H8          29.7500    19.4340    60.9760 hc         1 9TM       0.051700
     27 H9          29.7960    20.9400    61.9130 hc         1 9TM       0.051700
     28 H10         26.5110    20.8310    61.3610 ho         1 9TM       0.450000
     29 H11         28.1320    16.8290    63.3510 ho         1 9TM       0.485000
     30 H12         25.9900    16.3960    63.4670 h1         1 9TM       0.127700
     31 H13         23.5680    17.1280    61.7660 h1         1 9TM       0.055700
     32 H14         22.6650    15.3270    62.7010 ho         1 9TM       0.462000
     33 H15         25.3970    15.7300    60.6720 hn         1 9TM       0.324500
     34 H16         27.4220    13.1330    60.8420 hc         1 9TM       0.070700
     35 H17         26.6110    14.1920    59.6650 hc         1 9TM       0.070700
     36 H18         28.3460    14.3840    60.0110 hc         1 9TM       0.070700
@<TRIPOS>BOND
     1     1     2 1   
     2     2     3 1   
     3     2     4 2   
     4     4     5 1   
     5     4     7 1   
     6     5     6 1   
     7     5    15 1   
     8     5    21 1   
     9     7     8 1   
    10     8     9 1   
    11     8    14 1   
    12     8    22 1   
    13     9    10 1   
    14     9    13 1   
    15     9    23 1   
    16    10    11 1   
    17    10    12 1   
    18    10    24 1   
    19    11    25 1   
    20    11    26 1   
    21    11    27 1   
    22    12    28 1   
    23    13    29 1   
    24    14    15 1   
    25    14    17 1   
    26    14    30 1   
    27    15    16 1   
    28    15    31 1   
    29    16    32 1   
    30    17    18 1   
    31    17    33 1   
    32    18    19 2   
    33    18    20 1   
    34    20    34 1   
    35    20    35 1   
    36    20    36 1   
@<TRIPOS>SUBSTRUCTURE
     1 9TM         1 TEMP              0 ****  ****    0 ROOT
