@<TRIPOS>MOLECULE
9TN
   85    87     1     0     0
SMALL
No Charge or Current Charge


@<TRIPOS>ATOM
      1 CAA          3.6360     5.4920    -2.9890 c3         1 9TN      -0.067900
      2 CAB         10.3700    -1.1550     3.0040 c3         1 9TN      -0.088100
      3 CAC          0.6160    -3.2780    -3.6250 c3         1 9TN      -0.160100
      4 CAD          0.7460     4.5060    -2.4540 c3         1 9TN      -0.039900
      5 CAE         -1.8110     2.8470     1.3390 c3         1 9TN      -0.044900
      6 CAF         -5.5200    -2.4270     2.9910 c3         1 9TN      -0.116100
      7 CAG         -2.4810    -0.4850    -2.3340 c3         1 9TN      -0.118100
      8 CAO          3.2380     4.4140    -2.0000 c2         1 9TN      -0.141200
      9 CAP          9.1430    -0.3610     2.5180 c3         1 9TN      -0.075400
     10 CAQ          8.1120    -1.2370     1.7730 c3         1 9TN      -0.075400
     11 CAR          6.8820    -0.4400     1.2860 c3         1 9TN      -0.074400
     12 CAS          5.8510    -1.3160     0.5410 c3         1 9TN      -0.075400
     13 CAT          4.6210    -0.5180     0.0550 c3         1 9TN      -0.069400
     14 CAU          3.5870    -1.3930    -0.6910 c3         1 9TN      -0.133400
     15 OAV         -3.5540     0.6430     2.3700 os         1 9TN      -0.411100
     16 CAW         -2.7100    -2.6330    -0.8590 c3         1 9TN      -0.136400
     17 OAH         -1.7700    -2.9780    -3.8430 o          1 9TN      -0.497000
     18 OAI          2.3820     0.0680    -2.2060 o          1 9TN      -0.495000
     19 OAJ          2.6760     2.3650    -0.0680 o          1 9TN      -0.497000
     20 OAK         -4.8950     0.2610     4.1700 o          1 9TN      -0.487000
     21 OAL         -4.9480    -1.6780    -0.8490 oh         1 9TN      -0.696000
     22 OAM         -6.1670    -0.8110     1.3360 oh         1 9TN      -0.686000
     23 OAN         -2.7240    -2.1310     2.0930 oh         1 9TN      -0.643000
     24 OAX          1.3410    -0.6600    -0.2720 os         1 9TN      -0.431100
     25 OAY         -0.6630    -2.0780    -2.0130 os         1 9TN      -0.473100
     26 OAZ          0.4350     2.5660    -0.5560 os         1 9TN      -0.436100
     27 CBA         -0.7550    -2.7800    -3.1930 c          1 9TN       0.609100
     28 CBB          1.9840     3.9610    -1.7380 ce         1 9TN      -0.167400
     29 CBC          2.3920    -0.5580    -1.1540 c          1 9TN       0.609100
     30 CBD          1.7680     2.8690    -0.7180 c          1 9TN       0.606300
     31 CBE         -1.2870     1.5420     0.7530 c2         1 9TN      -0.067400
     32 CBF         -4.5550    -0.0120     3.0270 c          1 9TN       0.639100
     33 CBG         -1.9280     0.3750     0.5950 c2         1 9TN      -0.124400
     34 CBH         -3.3710     0.0590     1.0560 c5         1 9TN       0.247500
     35 CBI          0.1600     0.1290    -0.6000 c5         1 9TN       0.155300
     36 CBJ         -3.9610    -2.2960    -0.0160 c3         1 9TN       0.180300
     37 CBK         -5.0300    -1.2170     2.1470 c5         1 9TN       0.052000
     38 CBL          0.1490     1.4210     0.2920 c5         1 9TN       0.176500
     39 CBM         -1.7910    -1.4620    -1.3320 c3         1 9TN       0.228000
     40 CBN         -1.1050    -0.6940    -0.1370 c5         1 9TN      -0.013500
     41 CBO         -3.7240    -1.4630     1.2930 c5         1 9TN       0.166000
     42 HAA1         3.1470     6.4460    -2.7540 hc         1 9TN       0.049033
     43 HAA2         4.7190     5.6630    -2.9730 hc         1 9TN       0.049033
     44 HAA3         3.3610     5.2120    -4.0130 hc         1 9TN       0.049033
     45 HAO          4.0920     3.9890    -1.4670 ha         1 9TN       0.190000
     46 HAB1        10.0680    -1.9500     3.6980 hc         1 9TN       0.031367
     47 HAB2        10.8960    -1.6150     2.1580 hc         1 9TN       0.031367
     48 HAB3        11.0720    -0.4930     3.5260 hc         1 9TN       0.031367
     49 HAP1         8.6610     0.1140     3.3820 hc         1 9TN       0.037200
     50 HAP2         9.4800     0.4460     1.8560 hc         1 9TN       0.037200
     51 HAC1         1.2960    -2.4210    -3.6900 hc         1 9TN       0.071033
     52 HAC2         1.0550    -3.8590    -2.8070 hc         1 9TN       0.071033
     53 HAC3         0.5840    -3.8450    -4.5610 hc         1 9TN       0.071033
     54 HAD1         0.1940     3.7030    -2.9580 hc         1 9TN       0.045367
     55 HAD2         0.0600     4.9850    -1.7450 hc         1 9TN       0.045367
     56 HAD3         0.9860     5.2520    -3.2190 hc         1 9TN       0.045367
     57 HAE1        -1.3500     3.0510     2.3130 hc         1 9TN       0.054367
     58 HAE2        -1.5810     3.6930     0.6810 hc         1 9TN       0.054367
     59 HAE3        -2.8970     2.8500     1.4710 hc         1 9TN       0.054367
     60 HAF1        -5.7680    -3.2850     2.3530 hc         1 9TN       0.055700
     61 HAF2        -4.7620    -2.7530     3.7130 hc         1 9TN       0.055700
     62 HAF3        -6.4190    -2.1750     3.5670 hc         1 9TN       0.055700
     63 HAG1        -3.0990     0.2540    -1.8150 hc         1 9TN       0.057700
     64 HAG2        -1.7430     0.0630    -2.9320 hc         1 9TN       0.057700
     65 HAG3        -3.1460    -1.0180    -3.0220 hc         1 9TN       0.057700
     66 HAQ1         8.5980    -1.7110     0.9120 hc         1 9TN       0.036700
     67 HAQ2         7.7780    -2.0440     2.4380 hc         1 9TN       0.036700
     68 HAR1         6.3960     0.0350     2.1480 hc         1 9TN       0.039700
     69 HAR2         7.2150     0.3670     0.6220 hc         1 9TN       0.039700
     70 HAS1         6.3360    -1.7900    -0.3210 hc         1 9TN       0.036700
     71 HAS2         5.5170    -2.1230     1.2060 hc         1 9TN       0.036700
     72 HAT1         4.1350    -0.0420     0.9160 hc         1 9TN       0.055700
     73 HAT2         4.9550     0.2910    -0.6080 hc         1 9TN       0.055700
     74 HAU1         4.0660    -1.8500    -1.5640 hc         1 9TN       0.069200
     75 HAU2         3.2410    -2.1620     0.0090 hc         1 9TN       0.069200
     76 HBH         -4.0970     0.5240     0.3730 h1         1 9TN       0.105700
     77 HAW1        -2.0940    -3.3360    -0.2860 hc         1 9TN       0.064700
     78 HAW2        -3.0640    -3.2030    -1.7240 hc         1 9TN       0.064700
     79 HBJ         -4.3670    -3.2630     0.3120 h1         1 9TN       0.030700
     80 HAL         -5.6360    -1.3420    -0.2080 ho         1 9TN       0.515000
     81 HAM         -6.9100    -0.5730     1.9460 ho         1 9TN       0.518000
     82 HAN         -3.0260    -3.0530     2.2420 ho         1 9TN       0.451000
     83 HBI          0.1020     0.3750    -1.6670 h1         1 9TN       0.090700
     84 HBL          0.8300     1.3650     1.1530 h1         1 9TN       0.095700
     85 HBN         -0.7840    -1.4580     0.5790 hc         1 9TN       0.100700
@<TRIPOS>BOND
     1     1     8 1   
     2     1    42 1   
     3     1    43 1   
     4     1    44 1   
     5     2     9 1   
     6     2    46 1   
     7     2    47 1   
     8     2    48 1   
     9     3    27 1   
    10     3    51 1   
    11     3    52 1   
    12     3    53 1   
    13     4    28 1   
    14     4    54 1   
    15     4    55 1   
    16     4    56 1   
    17     5    31 1   
    18     5    57 1   
    19     5    58 1   
    20     5    59 1   
    21     6    37 1   
    22     6    60 1   
    23     6    61 1   
    24     6    62 1   
    25     7    39 1   
    26     7    63 1   
    27     7    64 1   
    28     7    65 1   
    29     8    28 2   
    30     8    45 1   
    31     9    10 1   
    32     9    49 1   
    33     9    50 1   
    34    10    11 1   
    35    10    66 1   
    36    10    67 1   
    37    11    12 1   
    38    11    68 1   
    39    11    69 1   
    40    12    13 1   
    41    12    70 1   
    42    12    71 1   
    43    13    14 1   
    44    13    72 1   
    45    13    73 1   
    46    14    29 1   
    47    14    74 1   
    48    14    75 1   
    49    15    32 1   
    50    15    34 1   
    51    16    36 1   
    52    16    39 1   
    53    16    77 1   
    54    16    78 1   
    55    17    27 2   
    56    18    29 2   
    57    19    30 2   
    58    20    32 2   
    59    21    36 1   
    60    21    80 1   
    61    22    37 1   
    62    22    81 1   
    63    23    41 1   
    64    23    82 1   
    65    24    29 1   
    66    24    35 1   
    67    25    27 1   
    68    25    39 1   
    69    26    30 1   
    70    26    38 1   
    71    28    30 1   
    72    31    33 2   
    73    31    38 1   
    74    32    37 1   
    75    33    34 1   
    76    33    40 1   
    77    34    41 1   
    78    34    76 1   
    79    35    38 1   
    80    35    40 1   
    81    35    83 1   
    82    36    41 1   
    83    36    79 1   
    84    37    41 1   
    85    38    84 1   
    86    39    40 1   
    87    40    85 1   
@<TRIPOS>SUBSTRUCTURE
     1 9TN         1 TEMP              0 ****  ****    0 ROOT
