@<TRIPOS>MOLECULE
9TN
   85    87     1     0     0
SMALL
abcg2


@<TRIPOS>ATOM
      1 CAA          3.5460     6.0240    -1.5060 c3         1 9TN      -0.067900
      2 CAB         10.9020    -1.8290     1.3180 c3         1 9TN      -0.088100
      3 CAC          1.4910    -3.4370    -2.1110 c3         1 9TN      -0.160100
      4 CAD          0.7250     4.7830    -1.9720 c3         1 9TN      -0.039900
      5 CAE         -2.5330     2.9790     0.6860 c3         1 9TN      -0.044900
      6 CAF         -5.9890    -2.2600     2.4840 c3         1 9TN      -0.116100
      7 CAG         -2.0090    -0.9080    -2.2850 c3         1 9TN      -0.118100
      8 CAO          2.9500     4.8660    -0.7890 c2         1 9TN      -0.141200
      9 CAP          9.7920    -1.0870     0.5880 c3         1 9TN      -0.075400
     10 CAQ          8.3990    -1.5200     1.0280 c3         1 9TN      -0.075400
     11 CAR          7.2810    -0.7870     0.2990 c3         1 9TN      -0.074400
     12 CAS          5.8900    -1.2160     0.7480 c3         1 9TN      -0.075400
     13 CAT          4.7800    -0.4960    -0.0070 c3         1 9TN      -0.069400
     14 CAU          3.3990    -0.9110     0.4760 c3         1 9TN      -0.133400
     15 OAV         -4.3390     0.8670     1.6560 os         1 9TN      -0.411100
     16 CAW         -2.5360    -2.7120    -0.5330 c3         1 9TN      -0.136400
     17 OAH         -0.7450    -3.4990    -2.9770 o          1 9TN      -0.497000
     18 OAI          2.3890     0.2280    -1.3850 o          1 9TN      -0.495000
     19 OAJ          2.1200     2.6950     0.7530 o          1 9TN      -0.497000
     20 OAK         -5.8840     0.6270     3.2240 o          1 9TN      -0.487000
     21 OAL         -4.6950    -1.8750    -1.3090 oh         1 9TN      -0.696000
     22 OAM         -6.4580    -0.9000     0.5400 oh         1 9TN      -0.686000
     23 OAN         -3.2540    -1.6500     2.0060 oh         1 9TN      -0.643000
     24 OAX          1.1360    -0.3080     0.3920 os         1 9TN      -0.431100
     25 OAY         -0.2730    -2.2360    -1.1760 os         1 9TN      -0.473100
     26 OAZ          0.1770     2.7060    -0.3510 os         1 9TN      -0.436100
     27 CBA          0.0310    -3.0830    -2.1540 c          1 9TN       0.609100
     28 CBB          1.7400     4.3220    -0.9690 ce         1 9TN      -0.167400
     29 CBC          2.2800    -0.2590    -0.2880 c          1 9TN       0.609100
     30 CBD          1.4020     3.1680    -0.0950 c          1 9TN       0.606300
     31 CBE         -1.8370     1.6790     0.4680 c2         1 9TN      -0.067400
     32 CBF         -5.2940     0.1820     2.2800 c          1 9TN       0.639100
     33 CBG         -2.3360     0.4420     0.3880 c2         1 9TN      -0.124400
     34 CBH         -3.7880     0.1100     0.5560 c5         1 9TN       0.247500
     35 CBI         -0.0330     0.2690    -0.1750 c5         1 9TN       0.155300
     36 CBJ         -3.9860    -2.3500    -0.1950 c3         1 9TN       0.180300
     37 CBK         -5.5250    -1.1510     1.5620 c5         1 9TN       0.052000
     38 CBL         -0.3370     1.6330     0.4340 c5         1 9TN       0.176500
     39 CBM         -1.5750    -1.6120    -1.0020 c3         1 9TN       0.228000
     40 CBN         -1.2650    -0.5960     0.1280 c5         1 9TN      -0.013500
     41 CBO         -4.1190    -1.3350     0.9420 c5         1 9TN       0.166000
     42 HAA1         2.8890     6.4710    -2.2480 hc         1 9TN       0.049033
     43 HAA2         3.8300     6.7990    -0.7910 hc         1 9TN       0.049033
     44 HAA3         4.4680     5.7190    -2.0070 hc         1 9TN       0.049033
     45 HAO          3.5890     4.4240    -0.0320 ha         1 9TN       0.190000
     46 HAB1        10.8420    -1.6670     2.3960 hc         1 9TN       0.031367
     47 HAB2        10.8360    -2.9050     1.1460 hc         1 9TN       0.031367
     48 HAB3        11.8890    -1.5030     0.9890 hc         1 9TN       0.031367
     49 HAP1         9.9020    -0.0100     0.7490 hc         1 9TN       0.037200
     50 HAP2         9.8940    -1.2420    -0.4910 hc         1 9TN       0.037200
     51 HAC1         2.0800    -2.5870    -2.4630 hc         1 9TN       0.071033
     52 HAC2         1.8160    -3.6620    -1.0970 hc         1 9TN       0.071033
     53 HAC3         1.6950    -4.2870    -2.7550 hc         1 9TN       0.071033
     54 HAD1         0.5320     4.0160    -2.7240 hc         1 9TN       0.045367
     55 HAD2        -0.2310     5.0190    -1.5020 hc         1 9TN       0.045367
     56 HAD3         1.0590     5.6750    -2.4960 hc         1 9TN       0.045367
     57 HAE1        -2.3950     3.3250     1.7140 hc         1 9TN       0.054367
     58 HAE2        -2.1120     3.7470     0.0370 hc         1 9TN       0.054367
     59 HAE3        -3.5990     2.9280     0.4890 hc         1 9TN       0.054367
     60 HAF1        -6.0530    -3.2050     1.9430 hc         1 9TN       0.055700
     61 HAF2        -5.3430    -2.3940     3.3490 hc         1 9TN       0.055700
     62 HAF3        -6.9840    -2.0310     2.8700 hc         1 9TN       0.055700
     63 HAG1        -2.7790    -0.1670    -2.0820 hc         1 9TN       0.057700
     64 HAG2        -1.1730    -0.3790    -2.7450 hc         1 9TN       0.057700
     65 HAG3        -2.4050    -1.6010    -3.0210 hc         1 9TN       0.057700
     66 HAQ1         8.2900    -2.5990     0.8710 hc         1 9TN       0.036700
     67 HAQ2         8.2960    -1.3610     2.1080 hc         1 9TN       0.036700
     68 HAR1         7.3930     0.2920     0.4510 hc         1 9TN       0.039700
     69 HAR2         7.3820    -0.9530    -0.7790 hc         1 9TN       0.039700
     70 HAS1         5.7810    -2.2970     0.6100 hc         1 9TN       0.036700
     71 HAS2         5.7830    -1.0340     1.8220 hc         1 9TN       0.036700
     72 HAT1         4.8970     0.5850     0.1140 hc         1 9TN       0.055700
     73 HAT2         4.8780    -0.7010    -1.0760 hc         1 9TN       0.055700
     74 HAU1         3.2760    -1.9960     0.3790 hc         1 9TN       0.069200
     75 HAU2         3.2800    -0.6960     1.5410 hc         1 9TN       0.069200
     76 HBH         -4.3410     0.3880    -0.3450 h1         1 9TN       0.105700
     77 HAW1        -2.0890    -3.2130     0.3280 hc         1 9TN       0.064700
     78 HAW2        -2.5990    -3.4760    -1.3130 hc         1 9TN       0.064700
     79 HBJ         -4.4340    -3.2900     0.1700 h1         1 9TN       0.030700
     80 HAL         -4.5640    -2.4950    -2.0340 ho         1 9TN       0.515000
     81 HAM         -7.3320    -0.8090     0.9370 ho         1 9TN       0.518000
     82 HAN         -3.4010    -2.5580     2.2950 ho         1 9TN       0.451000
     83 HBI          0.0940     0.3980    -1.2510 h1         1 9TN       0.090700
     84 HBL          0.0540     1.7080     1.4550 h1         1 9TN       0.095700
     85 HBN         -1.0750    -1.1670     1.0420 hc         1 9TN       0.100700
@<TRIPOS>BOND
     1     1     8 1   
     2     1    42 1   
     3     1    43 1   
     4     1    44 1   
     5     2     9 1   
     6     2    46 1   
     7     2    47 1   
     8     2    48 1   
     9     3    27 1   
    10     3    51 1   
    11     3    52 1   
    12     3    53 1   
    13     4    28 1   
    14     4    54 1   
    15     4    55 1   
    16     4    56 1   
    17     5    31 1   
    18     5    57 1   
    19     5    58 1   
    20     5    59 1   
    21     6    37 1   
    22     6    60 1   
    23     6    61 1   
    24     6    62 1   
    25     7    39 1   
    26     7    63 1   
    27     7    64 1   
    28     7    65 1   
    29     8    28 2   
    30     8    45 1   
    31     9    10 1   
    32     9    49 1   
    33     9    50 1   
    34    10    11 1   
    35    10    66 1   
    36    10    67 1   
    37    11    12 1   
    38    11    68 1   
    39    11    69 1   
    40    12    13 1   
    41    12    70 1   
    42    12    71 1   
    43    13    14 1   
    44    13    72 1   
    45    13    73 1   
    46    14    29 1   
    47    14    74 1   
    48    14    75 1   
    49    15    32 1   
    50    15    34 1   
    51    16    36 1   
    52    16    39 1   
    53    16    77 1   
    54    16    78 1   
    55    17    27 2   
    56    18    29 2   
    57    19    30 2   
    58    20    32 2   
    59    21    36 1   
    60    21    80 1   
    61    22    37 1   
    62    22    81 1   
    63    23    41 1   
    64    23    82 1   
    65    24    29 1   
    66    24    35 1   
    67    25    27 1   
    68    25    39 1   
    69    26    30 1   
    70    26    38 1   
    71    28    30 1   
    72    31    33 2   
    73    31    38 1   
    74    32    37 1   
    75    33    34 1   
    76    33    40 1   
    77    34    41 1   
    78    34    76 1   
    79    35    38 1   
    80    35    40 1   
    81    35    83 1   
    82    36    41 1   
    83    36    79 1   
    84    37    41 1   
    85    38    84 1   
    86    39    40 1   
    87    40    85 1   
@<TRIPOS>SUBSTRUCTURE
     1 9TN         1 TEMP              0 ****  ****    0 ROOT
