@<TRIPOS>MOLECULE
9TO
   42    45     1     0     0
SMALL
bcc


@<TRIPOS>ATOM
      1 C20          3.7110    -2.2670     0.8070 ca         1 9TO       0.427200
      2 C22          2.4990    -3.7840    -0.3770 ca         1 9TO       0.403200
      3 C23          2.0390    -2.8090    -1.2490 ca         1 9TO      -0.259300
      4 C24          2.4520    -1.5020    -1.0610 ca         1 9TO      -0.054000
      5 C25         -3.1960    -1.2960     0.5340 ca         1 9TO      -0.134000
      6 C26         -4.5590    -1.5060     0.5130 ca         1 9TO      -0.160500
      7 C01         -7.6560     0.2260    -0.2640 c3         1 9TO       0.125700
      8 C03         -5.4280    -0.4870     0.1180 ca         1 9TO       0.111100
      9 C04         -4.8870     0.7370    -0.2540 ca         1 9TO      -0.160500
     10 C05         -3.5110     0.9480    -0.2330 ca         1 9TO      -0.134000
     11 C06         -2.6420    -0.0640     0.1630 ca         1 9TO       0.142600
     12 C08         -0.4070     1.0730    -0.0230 ca         1 9TO       0.918900
     13 C10          0.0250     3.1920    -0.6460 ca         1 9TO       0.477200
     14 C11          1.3790     2.9980    -0.4830 ca         1 9TO      -0.430600
     15 C12          1.7730     1.7260    -0.0480 ca         1 9TO       0.598800
     16 C14          3.1750     1.4030     0.1780 cc         1 9TO      -0.336800
     17 C15          4.1760     2.3120     0.4660 cd         1 9TO      -0.107300
     18 C18          3.8280     0.1420     0.2390 cc         1 9TO       0.419800
     19 C19          3.3090    -1.2080    -0.0040 ca         1 9TO      -0.227800
     20 N09         -0.8820     2.2460    -0.4280 nb         1 9TO      -0.763000
     21 N13          0.8800     0.7800     0.1850 nb         1 9TO      -0.777000
     22 N16          5.2850     1.6020     0.6760 na         1 9TO       0.009400
     23 N17          5.1060     0.2950     0.5390 nd         1 9TO      -0.517800
     24 N21          3.3210    -3.5230     0.6320 nb         1 9TO      -0.672000
     25 H1           4.3770    -2.0800     1.6420 h4         1 9TO       0.027100
     26 H2           2.1930    -4.8170    -0.5000 h4         1 9TO       0.017100
     27 H3           1.3790    -3.0720    -2.0640 ha         1 9TO       0.141000
     28 H4           2.1240    -0.7240    -1.7370 ha         1 9TO       0.141000
     29 H5          -2.5480    -2.1060     0.8480 ha         1 9TO       0.149000
     30 H6          -4.9580    -2.4680     0.8080 ha         1 9TO       0.140000
     31 H7          -7.4970     0.5430    -1.2980 h1         1 9TO       0.039033
     32 H8          -8.6510    -0.2050    -0.1810 h1         1 9TO       0.039033
     33 H9          -7.6000     1.1060     0.3840 h1         1 9TO       0.039033
     34 H10         -5.5160     1.5590    -0.5700 ha         1 9TO       0.140000
     35 H11         -3.1270     1.9100    -0.5300 ha         1 9TO       0.149000
     36 H12         -0.3550     4.1510    -0.9790 h4         1 9TO       0.020100
     37 H13          2.0880     3.7840    -0.6930 ha         1 9TO       0.149000
     38 H14          4.1600     3.3860     0.5570 h4         1 9TO       0.178000
     39 H15         -0.7710    -0.7960     0.5290 hn         1 9TO       0.455800
     40 H16          6.1970     1.9610     0.9080 hn         1 9TO       0.327700
     41 N07         -1.2520     0.0360     0.2220 nu         1 9TO      -0.732300
     42 O02         -6.7460    -0.7790     0.1300 os         1 9TO      -0.317900
@<TRIPOS>BOND
     1     1    19 ar  
     2     1    24 ar  
     3     1    25 1   
     4     2     3 ar  
     5     2    24 ar  
     6     2    26 1   
     7     3     4 ar  
     8     3    27 1   
     9     4    19 ar  
    10     4    28 1   
    11     5     6 ar  
    12     5    11 ar  
    13     5    29 1   
    14     6     8 ar  
    15     6    30 1   
    16     7    31 1   
    17     7    32 1   
    18     7    33 1   
    19     7    42 1   
    20     8     9 ar  
    21     8    42 1   
    22     9    10 ar  
    23     9    34 1   
    24    10    11 ar  
    25    10    35 1   
    26    11    41 1   
    27    12    20 ar  
    28    12    21 ar  
    29    12    41 1   
    30    13    14 ar  
    31    13    20 ar  
    32    13    36 1   
    33    14    15 ar  
    34    14    37 1   
    35    15    16 1   
    36    15    21 ar  
    37    16    17 2   
    38    16    18 1   
    39    17    22 1   
    40    17    38 1   
    41    18    19 1   
    42    18    23 2   
    43    22    23 1   
    44    22    40 1   
    45    39    41 1   
@<TRIPOS>SUBSTRUCTURE
     1 9TO         1 TEMP              0 ****  ****    0 ROOT
