@<TRIPOS>MOLECULE
9TO
   42    45     1     0     0
SMALL
No Charge or Current Charge


@<TRIPOS>ATOM
      1 C20          4.1970    -2.3100     0.7710 ca         1 9TO       0.361900
      2 C22          3.1110    -3.8920    -0.5300 ca         1 9TO       0.337900
      3 C23          2.4430    -2.8940    -1.2530 ca         1 9TO      -0.176000
      4 C24          2.6640    -1.5460    -0.9300 ca         1 9TO      -0.036000
      5 C25         -3.3760    -1.3530     0.2000 ca         1 9TO      -0.116000
      6 C26         -4.7760    -1.4910     0.1670 ca         1 9TO      -0.142500
      7 C01         -7.8980     0.5440     0.0330 c3         1 9TO       0.148900
      8 C03         -5.6010    -0.3570     0.1160 ca         1 9TO       0.111100
      9 C04         -5.0130     0.9260     0.1040 ca         1 9TO      -0.142500
     10 C05         -3.6120     1.0600     0.1360 ca         1 9TO      -0.116000
     11 C06         -2.7810    -0.0790     0.1720 ca         1 9TO       0.281000
     12 C08         -0.4490     0.9480    -0.2050 ca         1 9TO       0.392900
     13 C10          0.0830     2.8510    -1.3570 ca         1 9TO       0.148900
     14 C11          1.4320     2.6670    -1.0160 ca         1 9TO      -0.282000
     15 C12          1.7740     1.5250    -0.2700 ca         1 9TO       0.270500
     16 C14          3.1420     1.3200     0.2030 cc         1 9TO      -0.271500
     17 C15          3.8650     2.3830     0.6580 cd         1 9TO      -0.140000
     18 C18          3.8710     0.1460     0.5120 cc         1 9TO       0.354500
     19 C19          3.5400    -1.2350     0.1330 ca         1 9TO      -0.162500
     20 N09         -0.8630     1.9830    -0.9580 nb         1 9TO      -0.237000
     21 N13          0.8150     0.6810     0.1620 nb         1 9TO      -0.251000
     22 N16          5.0200     1.8150     1.1970 na         1 9TO       0.009800
     23 N17          5.0200     0.4240     1.1040 nd         1 9TO      -0.517800
     24 N21          3.9830    -3.6130     0.4630 nb         1 9TO      -0.672000
     25 H1           4.9080    -2.1350     1.5780 h4         1 9TO       0.027100
     26 H2           2.9580    -4.9450    -0.7620 h4         1 9TO       0.017100
     27 H3           1.7720    -3.1670    -2.0620 ha         1 9TO       0.123000
     28 H4           2.1880    -0.7730    -1.5250 ha         1 9TO       0.123000
     29 H5          -2.7530    -2.2420     0.2390 ha         1 9TO       0.131000
     30 H6          -5.2230    -2.4830     0.1820 ha         1 9TO       0.122000
     31 H7          -7.7400     1.1470    -0.8710 h1         1 9TO       0.039033
     32 H8          -8.9280     0.1660     0.0140 h1         1 9TO       0.039033
     33 H9          -7.7890     1.1910     0.9130 h1         1 9TO       0.039033
     34 H10         -5.6220     1.8260     0.0770 ha         1 9TO       0.122000
     35 H11         -3.1820     2.0560     0.1530 ha         1 9TO       0.131000
     36 H12         -0.2440     3.7030    -1.9500 h4         1 9TO       0.020100
     37 H13          2.1860     3.3800    -1.3370 ha         1 9TO       0.131000
     38 H14          3.6550     3.4480     0.6820 h4         1 9TO       0.160000
     39 H15         -0.9330    -0.8300     0.5820 hn         1 9TO       0.511000
     40 H16          5.7940     2.3210     1.6290 hn         1 9TO       0.378000
     41 N07         -1.3830     0.0100     0.2190 nu         1 9TO      -0.925900
     42 O02         -6.9670    -0.5520     0.0860 os         1 9TO      -0.341100
@<TRIPOS>BOND
     1     1    19 ar  
     2     1    24 ar  
     3     1    25 1   
     4     2     3 ar  
     5     2    24 ar  
     6     2    26 1   
     7     3     4 ar  
     8     3    27 1   
     9     4    19 ar  
    10     4    28 1   
    11     5     6 ar  
    12     5    11 ar  
    13     5    29 1   
    14     6     8 ar  
    15     6    30 1   
    16     7    31 1   
    17     7    32 1   
    18     7    33 1   
    19     7    42 1   
    20     8     9 ar  
    21     8    42 1   
    22     9    10 ar  
    23     9    34 1   
    24    10    11 ar  
    25    10    35 1   
    26    11    41 1   
    27    12    20 ar  
    28    12    21 ar  
    29    12    41 1   
    30    13    14 ar  
    31    13    20 ar  
    32    13    36 1   
    33    14    15 ar  
    34    14    37 1   
    35    15    16 1   
    36    15    21 ar  
    37    16    17 2   
    38    16    18 1   
    39    17    22 1   
    40    17    38 1   
    41    18    19 1   
    42    18    23 2   
    43    22    23 1   
    44    22    40 1   
    45    39    41 1   
@<TRIPOS>SUBSTRUCTURE
     1 9TO         1 TEMP              0 ****  ****    0 ROOT
