@<TRIPOS>MOLECULE
9TP
   78    85     1     0     0
SMALL
No Charge or Current Charge


@<TRIPOS>ATOM
      1 C1          -1.8830    -3.9710    -0.5650 ca         1 9TP       0.053100
      2 C2          -3.1500    -3.7590    -1.0230 ca         1 9TP       0.068100
      3 C3          -3.6560    -2.4700    -1.2140 ca         1 9TP      -0.095000
      4 C4          -2.8230    -1.3630    -0.9270 ca         1 9TP      -0.050300
      5 C5          -1.4900    -1.5850    -0.4410 ca         1 9TP      -0.110300
      6 C6          -1.0240    -2.9100    -0.2620 ca         1 9TP      -0.093000
      7 C7          -3.4170     0.0520    -1.1120 c6         1 9TP       0.063900
      8 C8          -2.2800     1.1040    -1.1380 c5         1 9TP      -0.177700
      9 C9          -1.2620     0.9200    -0.0060 c5         1 9TP      -0.117700
     10 C10         -0.5190    -0.4300    -0.1150 c6         1 9TP       0.250600
     11 O11         -1.5900    -5.2900    -0.4390 os         1 9TP      -0.341100
     12 C12         -2.8140    -5.9430    -0.9320 c5         1 9TP       0.374600
     13 O13         -3.8230    -4.9170    -1.2440 os         1 9TP      -0.339100
     14 C14         -2.5900     2.6000    -1.0480 c          1 9TP       0.671100
     15 O15         -1.4960     3.2200    -0.5040 os         1 9TP      -0.428100
     16 C16         -0.4670     2.2390    -0.2090 c5         1 9TP       0.167600
     17 C17         -4.4850     0.3470    -0.0390 ca         1 9TP      -0.062300
     18 C18         -5.6710     1.0140    -0.4010 ca         1 9TP      -0.177500
     19 C19         -6.6650     1.2880     0.5630 ca         1 9TP       0.105100
     20 C20         -6.4770     0.8800     1.8990 ca         1 9TP       0.088100
     21 C21         -5.2970     0.1960     2.2730 ca         1 9TP       0.105100
     22 C22         -4.3100    -0.0680     1.2980 ca         1 9TP      -0.177500
     23 O23         -3.6390     3.1780    -1.2910 o          1 9TP      -0.493000
     24 O24         -5.1440    -0.2000     3.5930 os         1 9TP      -0.341600
     25 C25         -3.9790    -0.9050     4.0590 c3         1 9TP       0.150900
     26 O26         -7.4560     1.1540     2.8220 oh         1 9TP      -0.515100
     27 O27         -7.8390     1.9520     0.2460 os         1 9TP      -0.341600
     28 C28         -8.1190     2.4300    -1.0830 c3         1 9TP       0.150900
     29 O29          0.4620    -0.3860    -1.1710 os         1 9TP      -0.453000
     30 C30          1.8280    -0.5070    -0.7430 c6         1 9TP       0.364300
     31 O31          2.2040     0.6710     0.0010 os         1 9TP      -0.475000
     32 C32          3.5510     0.6060     0.5220 c6         1 9TP       0.101300
     33 C33          4.5650     0.5180    -0.6490 c6         1 9TP       0.131300
     34 C34          4.2400    -0.7360    -1.5160 c6         1 9TP       0.192300
     35 C35          2.7600    -0.6570    -1.9900 c6         1 9TP       0.104300
     36 C36          3.9130     1.8420     1.3790 c6         1 9TP       0.160600
     37 O37          5.3090     1.7710     1.7560 os         1 9TP      -0.459000
     38 C38          6.2100     1.7140     0.6320 c6         1 9TP       0.451600
     39 O39          5.9110     0.5220    -0.1190 os         1 9TP      -0.440000
     40 C40          7.6320     1.6830     1.1110 cc         1 9TP      -0.222300
     41 S1           8.2880     0.4070     2.1280 ss         1 9TP       0.267000
     42 C42          9.8670     1.1920     2.1440 cc         1 9TP      -0.247000
     43 C43          9.8490     2.3500     1.4090 cd         1 9TP      -0.136000
     44 C44          8.5850     2.6300     0.8230 cd         1 9TP      -0.105000
     45 O45          5.1050    -0.8570    -2.6600 oh         1 9TP      -0.697000
     46 O46          2.4170    -1.8060    -2.8060 oh         1 9TP      -0.721000
     47 H1          -4.6740    -2.3300    -1.5680 ha         1 9TP       0.143000
     48 H2          -0.0190    -3.1090     0.1010 ha         1 9TP       0.136000
     49 H3          -3.9070     0.0800    -2.0950 hc         1 9TP       0.077700
     50 H4          -1.7520     0.9600    -2.0890 hc         1 9TP       0.097700
     51 H5          -1.7410     0.9240     0.9790 hc         1 9TP       0.084700
     52 H6          -0.0220    -0.6420     0.8440 h1         1 9TP       0.057700
     53 H7          -2.5790    -6.5050    -1.8440 h2         1 9TP       0.068200
     54 H8          -3.2040    -6.6200    -0.1630 h2         1 9TP       0.068200
     55 H9           0.1100     2.5400     0.6750 h1         1 9TP       0.076200
     56 H10          0.2150     2.1780    -1.0690 h1         1 9TP       0.076200
     57 H11         -5.8030     1.3210    -1.4340 ha         1 9TP       0.126500
     58 H12         -3.4040    -0.6020     1.5670 ha         1 9TP       0.126500
     59 H13         -3.8630    -1.8600     3.5320 h1         1 9TP       0.042033
     60 H14         -3.0720    -0.3050     3.9070 h1         1 9TP       0.042033
     61 H15         -4.0680    -1.1180     5.1320 h1         1 9TP       0.042033
     62 H16         -8.1730     1.6270     2.3440 ho         1 9TP       0.476000
     63 H17         -7.3580     3.1510    -1.4060 h1         1 9TP       0.042033
     64 H18         -8.1440     1.5980    -1.7990 h1         1 9TP       0.042033
     65 H19         -9.0940     2.9300    -1.1090 h1         1 9TP       0.042033
     66 H20          1.9310    -1.3970    -0.1040 h2         1 9TP       0.035700
     67 H21          3.6420    -0.2900     1.1530 h1         1 9TP       0.061700
     68 H22          4.4460     1.4100    -1.2840 h1         1 9TP       0.063700
     69 H23          4.3480    -1.6270    -0.8780 h1         1 9TP       0.053700
     70 H24          2.6430     0.2610    -2.5860 h1         1 9TP       0.068700
     71 H25          3.7340     2.7670     0.8120 h1         1 9TP       0.065200
     72 H26          3.2940     1.8660     2.2860 h1         1 9TP       0.065200
     73 H27          6.0720     2.6030    -0.0040 h2         1 9TP       0.044700
     74 H28         10.6820     0.7390     2.6930 h4         1 9TP       0.149000
     75 H29         10.7180     2.9920     1.2860 ha         1 9TP       0.135000
     76 H30          8.3940     3.5060     0.2100 ha         1 9TP       0.133000
     77 H31          4.6020    -1.4410    -3.2780 ho         1 9TP       0.522000
     78 H32          1.4330    -1.7860    -2.9060 ho         1 9TP       0.527000
@<TRIPOS>BOND
     1     1     2 ar  
     2     1     6 ar  
     3     1    11 1   
     4     2     3 ar  
     5     2    13 1   
     6     3     4 ar  
     7     3    47 1   
     8     4     5 ar  
     9     4     7 1   
    10     5     6 ar  
    11     5    10 1   
    12     6    48 1   
    13     7     8 1   
    14     7    17 1   
    15     7    49 1   
    16     8     9 1   
    17     8    14 1   
    18     8    50 1   
    19     9    10 1   
    20     9    16 1   
    21     9    51 1   
    22    10    29 1   
    23    10    52 1   
    24    11    12 1   
    25    12    13 1   
    26    12    53 1   
    27    12    54 1   
    28    14    15 1   
    29    14    23 2   
    30    15    16 1   
    31    16    55 1   
    32    16    56 1   
    33    17    18 ar  
    34    17    22 ar  
    35    18    19 ar  
    36    18    57 1   
    37    19    20 ar  
    38    19    27 1   
    39    20    21 ar  
    40    20    26 1   
    41    21    22 ar  
    42    21    24 1   
    43    22    58 1   
    44    24    25 1   
    45    25    59 1   
    46    25    60 1   
    47    25    61 1   
    48    26    62 1   
    49    27    28 1   
    50    28    63 1   
    51    28    64 1   
    52    28    65 1   
    53    29    30 1   
    54    30    31 1   
    55    30    35 1   
    56    30    66 1   
    57    31    32 1   
    58    32    33 1   
    59    32    36 1   
    60    32    67 1   
    61    33    34 1   
    62    33    39 1   
    63    33    68 1   
    64    34    35 1   
    65    34    45 1   
    66    34    69 1   
    67    35    46 1   
    68    35    70 1   
    69    36    37 1   
    70    36    71 1   
    71    36    72 1   
    72    37    38 1   
    73    38    39 1   
    74    38    40 1   
    75    38    73 1   
    76    40    41 1   
    77    40    44 2   
    78    41    42 1   
    79    42    43 2   
    80    42    74 1   
    81    43    44 1   
    82    43    75 1   
    83    44    76 1   
    84    45    77 1   
    85    46    78 1   
@<TRIPOS>SUBSTRUCTURE
     1 9TP         1 TEMP              0 ****  ****    0 ROOT
