@<TRIPOS>MOLECULE
9TP
   78    85     1     0     0
SMALL
abcg2


@<TRIPOS>ATOM
      1 C1          -1.6160    -3.7670    -0.6460 ca         1 9TP       0.053100
      2 C2          -2.8600    -3.5950    -1.2370 ca         1 9TP       0.068100
      3 C3          -3.4170    -2.3560    -1.3850 ca         1 9TP      -0.095000
      4 C4          -2.6880    -1.2420    -0.9270 ca         1 9TP      -0.050300
      5 C5          -1.4390    -1.4150    -0.3350 ca         1 9TP      -0.110300
      6 C6          -0.8880    -2.7050    -0.1920 ca         1 9TP      -0.093000
      7 C7          -3.3600     0.1130    -1.0700 c6         1 9TP       0.063900
      8 C8          -2.2750     1.1780    -0.9770 c5         1 9TP      -0.177700
      9 C9          -1.4080     0.9980     0.2500 c5         1 9TP      -0.117700
     10 C10         -0.5730    -0.2580     0.1290 c6         1 9TP       0.250600
     11 O11         -1.3030    -5.0830    -0.6290 os         1 9TP      -0.341100
     12 C12         -2.4190    -5.7780    -1.1710 c5         1 9TP       0.374600
     13 O13         -3.3530    -4.7970    -1.6070 os         1 9TP      -0.339100
     14 C14         -2.6460     2.6350    -0.9000 c          1 9TP       0.671100
     15 O15         -1.7540     3.2670    -0.1300 os         1 9TP      -0.428100
     16 C16         -0.7380     2.3580     0.3460 c5         1 9TP       0.167600
     17 C17         -4.4830     0.2870    -0.0640 ca         1 9TP      -0.062300
     18 C18         -5.5980     1.0360    -0.4220 ca         1 9TP      -0.177500
     19 C19         -6.6330     1.2230     0.4860 ca         1 9TP       0.105100
     20 C20         -6.5680     0.6620     1.7620 ca         1 9TP       0.088100
     21 C21         -5.4530    -0.0990     2.1160 ca         1 9TP       0.105100
     22 C22         -4.4220    -0.2870     1.2010 ca         1 9TP      -0.177500
     23 O23         -3.5410     3.2240    -1.4410 o          1 9TP      -0.493000
     24 O24         -5.4770    -0.6120     3.3620 os         1 9TP      -0.341600
     25 C25         -4.3540    -1.3430     3.8060 c3         1 9TP       0.150900
     26 O26         -7.5560     0.8170     2.6700 oh         1 9TP      -0.515100
     27 O27         -7.7600     1.9280     0.2420 os         1 9TP      -0.341600
     28 C28         -7.8870     2.5950    -0.9980 c3         1 9TP       0.150900
     29 O29          0.4710    -0.0930    -0.8270 os         1 9TP      -0.453000
     30 C30          1.7680    -0.2420    -0.3880 c6         1 9TP       0.364300
     31 O31          2.2530     1.0200     0.0110 os         1 9TP      -0.475000
     32 C32          3.5800     0.9330     0.4640 c6         1 9TP       0.101300
     33 C33          4.5000     0.4830    -0.6660 c6         1 9TP       0.131300
     34 C34          4.0810    -0.8840    -1.1600 c6         1 9TP       0.192300
     35 C35          2.6010    -0.8070    -1.5420 c6         1 9TP       0.104300
     36 C36          4.0590     2.2890     0.9520 c6         1 9TP       0.160600
     37 O37          5.4280     2.1840     1.3010 os         1 9TP      -0.459000
     38 C38          6.2290     1.7340     0.2440 c6         1 9TP       0.451600
     39 O39          5.8290     0.4620    -0.1890 os         1 9TP      -0.440000
     40 C40          7.6300     1.6440     0.7290 cc         1 9TP      -0.222300
     41 S1           8.0370     0.5800     2.0180 ss         1 9TP       0.267000
     42 C42          9.6820     1.0560     1.9590 cc         1 9TP      -0.247000
     43 C43          9.9050     1.9890     0.9930 cd         1 9TP      -0.136000
     44 C44          8.7190     2.3270     0.2840 cd         1 9TP      -0.105000
     45 O45          4.8850    -1.2420    -2.2510 oh         1 9TP      -0.697000
     46 O46          2.1820    -2.1080    -1.8650 oh         1 9TP      -0.721000
     47 H1          -4.3900    -2.2240    -1.8420 ha         1 9TP       0.143000
     48 H2           0.0800    -2.8500     0.2720 ha         1 9TP       0.136000
     49 H3          -3.8040     0.1630    -2.0680 hc         1 9TP       0.077700
     50 H4          -1.6440     1.0890    -1.8740 hc         1 9TP       0.097700
     51 H5          -2.0560     0.8760     1.1260 hc         1 9TP       0.084700
     52 H6          -0.1400    -0.5070     1.1050 h1         1 9TP       0.057700
     53 H7          -2.0990    -6.3860    -2.0200 h2         1 9TP       0.068200
     54 H8          -2.8740    -6.4070    -0.4010 h2         1 9TP       0.068200
     55 H9          -0.4680     2.6520     1.3580 h1         1 9TP       0.076200
     56 H10          0.1340     2.4450    -0.3010 h1         1 9TP       0.076200
     57 H11         -5.6460     1.4720    -1.4100 ha         1 9TP       0.126500
     58 H12         -3.5760    -0.9090     1.4620 ha         1 9TP       0.126500
     59 H13         -4.1840    -2.2440     3.2110 h1         1 9TP       0.042033
     60 H14         -3.4420    -0.7380     3.7960 h1         1 9TP       0.042033
     61 H15         -4.5630    -1.6400     4.8310 h1         1 9TP       0.042033
     62 H16         -8.2620     1.3540     2.2910 ho         1 9TP       0.476000
     63 H17         -7.0850     3.3210    -1.1510 h1         1 9TP       0.042033
     64 H18         -7.8950     1.8950    -1.8370 h1         1 9TP       0.042033
     65 H19         -8.8380     3.1200    -0.9700 h1         1 9TP       0.042033
     66 H20          1.8240    -0.9360     0.4700 h2         1 9TP       0.035700
     67 H21          3.6580     0.2110     1.2930 h1         1 9TP       0.061700
     68 H22          4.4140     1.2040    -1.4970 h1         1 9TP       0.063700
     69 H23          4.1890    -1.6050    -0.3340 h1         1 9TP       0.053700
     70 H24          2.5010    -0.1250    -2.4000 h1         1 9TP       0.068700
     71 H25          3.9090     3.0450     0.1700 h1         1 9TP       0.065200
     72 H26          3.5210     2.6090     1.8450 h1         1 9TP       0.065200
     73 H27          6.1710     2.4440    -0.5990 h2         1 9TP       0.044700
     74 H28         10.3970     0.6230     2.6410 h4         1 9TP       0.149000
     75 H29         10.8740     2.4220     0.7930 ha         1 9TP       0.135000
     76 H30          8.6780     3.0480    -0.5210 ha         1 9TP       0.133000
     77 H31          4.6410    -2.1300    -2.5300 ho         1 9TP       0.522000
     78 H32          1.3240    -2.0590    -2.2990 ho         1 9TP       0.527000
@<TRIPOS>BOND
     1     1     2 ar  
     2     1     6 ar  
     3     1    11 1   
     4     2     3 ar  
     5     2    13 1   
     6     3     4 ar  
     7     3    47 1   
     8     4     5 ar  
     9     4     7 1   
    10     5     6 ar  
    11     5    10 1   
    12     6    48 1   
    13     7     8 1   
    14     7    17 1   
    15     7    49 1   
    16     8     9 1   
    17     8    14 1   
    18     8    50 1   
    19     9    10 1   
    20     9    16 1   
    21     9    51 1   
    22    10    29 1   
    23    10    52 1   
    24    11    12 1   
    25    12    13 1   
    26    12    53 1   
    27    12    54 1   
    28    14    15 1   
    29    14    23 2   
    30    15    16 1   
    31    16    55 1   
    32    16    56 1   
    33    17    18 ar  
    34    17    22 ar  
    35    18    19 ar  
    36    18    57 1   
    37    19    20 ar  
    38    19    27 1   
    39    20    21 ar  
    40    20    26 1   
    41    21    22 ar  
    42    21    24 1   
    43    22    58 1   
    44    24    25 1   
    45    25    59 1   
    46    25    60 1   
    47    25    61 1   
    48    26    62 1   
    49    27    28 1   
    50    28    63 1   
    51    28    64 1   
    52    28    65 1   
    53    29    30 1   
    54    30    31 1   
    55    30    35 1   
    56    30    66 1   
    57    31    32 1   
    58    32    33 1   
    59    32    36 1   
    60    32    67 1   
    61    33    34 1   
    62    33    39 1   
    63    33    68 1   
    64    34    35 1   
    65    34    45 1   
    66    34    69 1   
    67    35    46 1   
    68    35    70 1   
    69    36    37 1   
    70    36    71 1   
    71    36    72 1   
    72    37    38 1   
    73    38    39 1   
    74    38    40 1   
    75    38    73 1   
    76    40    41 1   
    77    40    44 2   
    78    41    42 1   
    79    42    43 2   
    80    42    74 1   
    81    43    44 1   
    82    43    75 1   
    83    44    76 1   
    84    45    77 1   
    85    46    78 1   
@<TRIPOS>SUBSTRUCTURE
     1 9TP         1 TEMP              0 ****  ****    0 ROOT
