@<TRIPOS>MOLECULE
9TQ
   72    76     1     0     0
SMALL
No Charge or Current Charge


@<TRIPOS>ATOM
      1 C10         -6.6540     1.9000     0.3190 c6         1 9TQ       0.140300
      2 C15         -6.6070    -1.2540     2.6960 c3         1 9TQ       0.172600
      3 C20          0.5790    -0.0160     0.9840 ca         1 9TQ      -0.105000
      4 C21          1.9140     0.2520     1.3570 ca         1 9TQ      -0.108600
      5 C22          2.1940     0.6320     2.7890 c          1 9TQ       0.712600
      6 C26          2.6000    -0.1930    -0.9400 ca         1 9TQ      -0.110000
      7 C28          4.4180     0.4770     0.6940 c6         1 9TQ       0.095100
      8 C02         -1.7540    -1.3760    -1.5950 cs         1 9TQ       0.486400
      9 C04         -4.1040    -1.8710    -2.3850 c3         1 9TQ       0.107000
     10 C05         -5.5120    -1.8610    -1.7560 c3         1 9TQ       0.137600
     11 C07         -7.1910    -0.2890    -0.9200 c6         1 9TQ       0.361300
     12 C08         -7.5050     1.2430    -0.8140 c6         1 9TQ       0.114300
     13 C12         -6.8010     1.1260     1.6620 c6         1 9TQ       0.145300
     14 C14         -6.4620    -0.3790     1.4070 c6         1 9TQ       0.170300
     15 C19          0.2480    -0.3900    -0.3300 ca         1 9TQ       0.019600
     16 C25          1.2700    -0.4650    -1.2940 ca         1 9TQ      -0.106000
     17 C27          2.9410     0.1640     0.3800 ca         1 9TQ      -0.066300
     18 C29          5.2990    -0.7480     0.4250 ca         1 9TQ      -0.140300
     19 C30          5.0780    -1.9410     1.1420 ca         1 9TQ      -0.012000
     20 C31          5.8720    -3.0740     0.8910 ca         1 9TQ      -0.228000
     21 C32          6.8860    -3.0200    -0.0760 ca         1 9TQ       0.147100
     22 C34          7.1120    -1.8380    -0.7910 ca         1 9TQ      -0.179000
     23 C35          6.3250    -0.7030    -0.5430 ca         1 9TQ       0.141100
     24 C37          4.8900     1.6890    -0.1120 ce         1 9TQ      -0.182200
     25 C38          5.8990     1.6030    -1.0050 c2         1 9TQ       0.114900
     26 C39          6.2850     2.7970    -1.8570 c6         1 9TQ      -0.150200
     27 C40          4.2180     2.9670     0.1560 ce         1 9TQ      -0.041000
     28 C41          4.7180     4.1310    -0.3390 cf         1 9TQ      -0.361200
     29 C42          5.9150     4.1380    -1.2130 c          1 9TQ       0.589300
     30 N03         -3.1070    -1.2070    -1.5360 ns         1 9TQ      -0.462900
     31 N18         -1.1150    -0.6310    -0.6370 ns         1 9TQ      -0.353100
     32 O06         -5.8680    -0.4960    -1.4550 os         1 9TQ      -0.487000
     33 O09         -7.2620     1.9250    -2.0680 oh         1 9TQ      -0.711000
     34 O11         -7.0430     3.2780     0.4870 oh         1 9TQ      -0.673000
     35 O13         -8.1350     1.3210     2.1780 oh         1 9TQ      -0.717000
     36 O16         -6.2430    -2.6360     2.4920 oh         1 9TQ      -0.714000
     37 O17         -7.3130    -0.9340     0.3670 os         1 9TQ      -0.453000
     38 O23          2.8070    -0.1600     3.4890 o          1 9TQ      -0.715000
     39 O24          1.7630     1.7030     3.1910 o          1 9TQ      -0.715000
     40 O33          7.6540    -4.1160    -0.3200 oh         1 9TQ      -0.544100
     41 O36          6.5810     0.4450    -1.2600 os         1 9TQ      -0.237200
     42 O43          6.6120     5.1360    -1.3340 o          1 9TQ      -0.564100
     43 S01         -1.0200    -2.4360    -2.6630 s          1 9TQ      -0.683400
     44 H1          -5.5950     1.8480     0.0200 h1         1 9TQ       0.066700
     45 H2          -5.9750    -0.8130     3.4790 h1         1 9TQ       0.037200
     46 H3          -7.6470    -1.1880     3.0430 h1         1 9TQ       0.037200
     47 H6          -3.8050    -2.9140    -2.5550 h1         1 9TQ       0.075700
     48 H7          -4.1360    -1.3630    -3.3570 h1         1 9TQ       0.075700
     49 H8          -6.2260    -2.3060    -2.4610 h1         1 9TQ       0.048200
     50 H9          -5.5040    -2.4710    -0.8430 h1         1 9TQ       0.048200
     51 H10         -7.9220    -0.7380    -1.6100 h2         1 9TQ       0.063700
     52 H11         -8.5670     1.3380    -0.5450 h1         1 9TQ       0.060700
     53 H12         -6.0640     1.5290     2.3730 h1         1 9TQ       0.057700
     54 H13         -5.4140    -0.4530     1.0820 h1         1 9TQ       0.063700
     55 H14          1.0440    -0.7080    -2.3270 ha         1 9TQ       0.117000
     56 H15          4.2880    -1.9890     1.8910 ha         1 9TQ       0.168000
     57 H16          5.6900    -3.9890     1.4500 ha         1 9TQ       0.112000
     58 H17          7.9000    -1.7970    -1.5380 ha         1 9TQ       0.130000
     59 H18          7.3400     2.7960    -2.1590 hc         1 9TQ       0.089700
     60 H19          5.6700     2.7230    -2.7620 hc         1 9TQ       0.089700
     61 H20          3.3580     2.9810     0.8320 ha         1 9TQ       0.206000
     62 H21          4.2950     5.0910    -0.0460 ha         1 9TQ       0.198000
     63 H22         -3.4670    -0.5400    -0.8640 hn         1 9TQ       0.307500
     64 H23         -1.7460    -0.1290    -0.0270 hn         1 9TQ       0.303500
     65 H24         -6.4910     1.4640    -2.4790 ho         1 9TQ       0.508000
     66 H25         -7.1640     3.6230    -0.4290 ho         1 9TQ       0.466000
     67 H26         -8.3400     2.2650     1.9680 ho         1 9TQ       0.519000
     68 H27         -6.4570    -3.1160     3.3270 ho         1 9TQ       0.507000
     69 H29          7.3520    -4.8400     0.2700 ho         1 9TQ       0.460000
     70 H30          4.5460     0.7340     1.7540 hc         1 9TQ       0.123700
     71 H4          -0.2040     0.0580     1.7350 ha         1 9TQ       0.125000
     72 H5           3.3730    -0.2490    -1.7020 ha         1 9TQ       0.101000
@<TRIPOS>BOND
     1     1    12 1   
     2     1    13 1   
     3     1    34 1   
     4     1    44 1   
     5     2    14 1   
     6     2    36 1   
     7     2    45 1   
     8     2    46 1   
     9     3     4 ar  
    10     3    15 ar  
    11     3    71 1   
    12     4     5 1   
    13     4    17 ar  
    14     5    38 1   
    15     5    39 1   
    16     6    16 ar  
    17     6    17 ar  
    18     6    72 1   
    19     7    17 1   
    20     7    18 1   
    21     7    24 1   
    22     7    70 1   
    23     8    30 1   
    24     8    31 1   
    25     8    43 2   
    26     9    10 1   
    27     9    30 1   
    28     9    47 1   
    29     9    48 1   
    30    10    32 1   
    31    10    49 1   
    32    10    50 1   
    33    11    12 1   
    34    11    32 1   
    35    11    37 1   
    36    11    51 1   
    37    12    33 1   
    38    12    52 1   
    39    13    14 1   
    40    13    35 1   
    41    13    53 1   
    42    14    37 1   
    43    14    54 1   
    44    15    16 ar  
    45    15    31 1   
    46    16    55 1   
    47    18    19 ar  
    48    18    23 ar  
    49    19    20 ar  
    50    19    56 1   
    51    20    21 ar  
    52    20    57 1   
    53    21    22 ar  
    54    21    40 1   
    55    22    23 ar  
    56    22    58 1   
    57    23    41 1   
    58    24    25 2   
    59    24    27 1   
    60    25    26 1   
    61    25    41 1   
    62    26    29 1   
    63    26    59 1   
    64    26    60 1   
    65    27    28 2   
    66    27    61 1   
    67    28    29 1   
    68    28    62 1   
    69    29    42 2   
    70    30    63 1   
    71    31    64 1   
    72    33    65 1   
    73    34    66 1   
    74    35    67 1   
    75    36    68 1   
    76    40    69 1   
@<TRIPOS>SUBSTRUCTURE
     1 9TQ         1 TEMP              0 ****  ****    0 ROOT
