@<TRIPOS>MOLECULE
9TQ
   72    76     1     0     0
SMALL
bcc


@<TRIPOS>ATOM
      1 C10         -6.8140     1.7690    -0.0810 c6         1 9TQ       0.117100
      2 C15         -6.3340    -0.8480     2.7050 c3         1 9TQ       0.149400
      3 C20          0.6110     0.0370     1.1210 ca         1 9TQ      -0.123000
      4 C21          1.9470     0.1590     1.5110 ca         1 9TQ      -0.108600
      5 C22          2.2200     0.2070     3.0110 c          1 9TQ       0.923200
      6 C26          2.5500     0.1270    -0.8150 ca         1 9TQ      -0.128000
      7 C28          4.4160     0.3850     0.8270 c6         1 9TQ       0.095100
      8 C02         -1.7100    -1.1040    -1.3120 cs         1 9TQ       0.620400
      9 C04         -3.9050    -1.7750    -2.2500 c3         1 9TQ       0.107000
     10 C05         -5.2500    -1.9190    -1.5760 c3         1 9TQ       0.114400
     11 C07         -7.0820    -0.5930    -0.8740 c6         1 9TQ       0.314900
     12 C08         -7.6190     0.8380    -0.9780 c6         1 9TQ       0.091100
     13 C12         -6.8010     1.2330     1.3500 c6         1 9TQ       0.122100
     14 C14         -6.2990    -0.2040     1.3360 c6         1 9TQ       0.147100
     15 C19          0.2470    -0.0770    -0.2100 ca         1 9TQ       0.019600
     16 C25          1.2300    -0.0170    -1.1940 ca         1 9TQ      -0.124000
     17 C27          2.9350     0.2050     0.5250 ca         1 9TQ      -0.066300
     18 C29          5.2070    -0.8280     0.4050 ca         1 9TQ      -0.140300
     19 C30          5.0320    -2.0570     1.0330 ca         1 9TQ      -0.030000
     20 C31          5.7130    -3.1910     0.6270 ca         1 9TQ      -0.246000
     21 C32          6.6040    -3.1130    -0.4440 ca         1 9TQ       0.147100
     22 C34          6.8090    -1.8970    -1.0810 ca         1 9TQ      -0.197000
     23 C35          6.1130    -0.7780    -0.6450 ca         1 9TQ       0.141100
     24 C37          4.9490     1.6050     0.1260 ce         1 9TQ      -0.182200
     25 C38          5.8460     1.5330    -0.8680 c2         1 9TQ       0.114900
     26 C39          6.3550     2.7240    -1.5980 c6         1 9TQ      -0.150200
     27 C40          4.4620     2.9100     0.5030 ce         1 9TQ       0.009000
     28 C41          4.8400     4.0670    -0.0790 cf         1 9TQ      -0.311200
     29 C42          5.7980     4.0660    -1.1680 c          1 9TQ       0.589300
     30 N03         -3.0290    -0.9330    -1.4660 ns         1 9TQ      -0.529900
     31 N18         -1.1210    -0.1660    -0.5360 ns         1 9TQ      -0.420100
     32 O06         -5.8190    -0.6290    -1.4600 os         1 9TQ      -0.440600
     33 O09         -7.5610     1.3410    -2.2890 oh         1 9TQ      -0.588800
     34 O11         -7.3640     3.0650    -0.0440 oh         1 9TQ      -0.610800
     35 O13         -8.0840     1.2670     1.9270 oh         1 9TQ      -0.594800
     36 O16         -5.6490    -2.0770     2.6350 oh         1 9TQ      -0.591800
     37 O17         -7.0700    -1.0120     0.4600 os         1 9TQ      -0.406600
     38 O23          3.1840    -0.4610     3.4370 o          1 9TQ      -0.820300
     39 O24          1.4290     0.8870     3.6880 o          1 9TQ      -0.820300
     40 O33          7.2900    -4.1780    -0.8980 oh         1 9TQ      -0.505100
     41 O36          6.3860     0.3830    -1.3130 os         1 9TQ      -0.237200
     42 O43          6.1630     5.0850    -1.7310 o          1 9TQ      -0.564100
     43 S01         -0.8680    -2.3840    -2.0000 s          1 9TQ      -0.683400
     44 H1          -5.7740     1.8000    -0.4380 h1         1 9TQ       0.066700
     45 H2          -5.8570    -0.1590     3.4150 h1         1 9TQ       0.037200
     46 H3          -7.3720    -0.9800     3.0300 h1         1 9TQ       0.037200
     47 H6          -3.4470    -2.7560    -2.3510 h1         1 9TQ       0.075700
     48 H7          -4.0270    -1.3660    -3.2570 h1         1 9TQ       0.075700
     49 H8          -5.8880    -2.5710    -2.1860 h1         1 9TQ       0.048200
     50 H9          -5.1270    -2.3900    -0.5960 h1         1 9TQ       0.048200
     51 H10         -7.7590    -1.2900    -1.3870 h2         1 9TQ       0.063700
     52 H11         -8.6540     0.8130    -0.6130 h1         1 9TQ       0.060700
     53 H12         -6.0880     1.8300     1.9370 h1         1 9TQ       0.057700
     54 H13         -5.2490    -0.1720     1.0130 h1         1 9TQ       0.063700
     55 H14          0.9660    -0.0720    -2.2400 ha         1 9TQ       0.135000
     56 H15          4.3380    -2.1130     1.8620 ha         1 9TQ       0.186000
     57 H16          5.5520    -4.1330     1.1390 ha         1 9TQ       0.130000
     58 H17          7.5050    -1.8170    -1.9070 ha         1 9TQ       0.148000
     59 H18          7.4470     2.7660    -1.5060 hc         1 9TQ       0.089700
     60 H19          6.1630     2.6050    -2.6710 hc         1 9TQ       0.089700
     61 H20          3.7410     2.9470     1.3120 ha         1 9TQ       0.156000
     62 H21          4.4360     5.0150     0.2520 ha         1 9TQ       0.148000
     63 H22         -3.4420    -0.0780    -1.1230 hn         1 9TQ       0.307500
     64 H23         -1.7290     0.4430    -0.0060 hn         1 9TQ       0.303500
     65 H24         -8.2940     0.9790    -2.7950 ho         1 9TQ       0.409000
     66 H25         -7.5380     3.3480    -0.9480 ho         1 9TQ       0.427000
     67 H26         -8.4350     2.1560     1.8090 ho         1 9TQ       0.420000
     68 H27         -5.6640    -2.4750     3.5100 ho         1 9TQ       0.408000
     69 H29          7.0720    -4.9620    -0.3830 ho         1 9TQ       0.421000
     70 H30          4.5350     0.5160     1.9020 hc         1 9TQ       0.123700
     71 H4          -0.1590     0.0140     1.8810 ha         1 9TQ       0.143000
     72 H5           3.3040     0.1920    -1.5910 ha         1 9TQ       0.119000
@<TRIPOS>BOND
     1     1    12 1   
     2     1    13 1   
     3     1    34 1   
     4     1    44 1   
     5     2    14 1   
     6     2    36 1   
     7     2    45 1   
     8     2    46 1   
     9     3     4 ar  
    10     3    15 ar  
    11     3    71 1   
    12     4     5 1   
    13     4    17 ar  
    14     5    38 1   
    15     5    39 1   
    16     6    16 ar  
    17     6    17 ar  
    18     6    72 1   
    19     7    17 1   
    20     7    18 1   
    21     7    24 1   
    22     7    70 1   
    23     8    30 1   
    24     8    31 1   
    25     8    43 2   
    26     9    10 1   
    27     9    30 1   
    28     9    47 1   
    29     9    48 1   
    30    10    32 1   
    31    10    49 1   
    32    10    50 1   
    33    11    12 1   
    34    11    32 1   
    35    11    37 1   
    36    11    51 1   
    37    12    33 1   
    38    12    52 1   
    39    13    14 1   
    40    13    35 1   
    41    13    53 1   
    42    14    37 1   
    43    14    54 1   
    44    15    16 ar  
    45    15    31 1   
    46    16    55 1   
    47    18    19 ar  
    48    18    23 ar  
    49    19    20 ar  
    50    19    56 1   
    51    20    21 ar  
    52    20    57 1   
    53    21    22 ar  
    54    21    40 1   
    55    22    23 ar  
    56    22    58 1   
    57    23    41 1   
    58    24    25 2   
    59    24    27 1   
    60    25    26 1   
    61    25    41 1   
    62    26    29 1   
    63    26    59 1   
    64    26    60 1   
    65    27    28 2   
    66    27    61 1   
    67    28    29 1   
    68    28    62 1   
    69    29    42 2   
    70    30    63 1   
    71    31    64 1   
    72    33    65 1   
    73    34    66 1   
    74    35    67 1   
    75    36    68 1   
    76    40    69 1   
@<TRIPOS>SUBSTRUCTURE
     1 9TQ         1 TEMP              0 ****  ****    0 ROOT
