@<TRIPOS>MOLECULE
9TR
   41    41     1     0     0
SMALL
bcc


@<TRIPOS>ATOM
      1 C15        263.8280    47.6740   139.8690 ca         1 9TR      -0.080300
      2 C17        263.7490    48.4360   137.5830 ca         1 9TR       0.084600
      3 C21        263.8640    47.1220   137.1370 ca         1 9TR      -0.116000
      4 C22        263.9630    46.0940   138.0580 ca         1 9TR      -0.115000
      5 C          257.1110    49.4340   146.6190 c          1 9TR       0.898600
      6 OXT        257.9870    50.3210   146.5470 o          1 9TR      -0.843300
      7 CA         257.5430    47.9760   146.3370 c3         1 9TR       0.015500
      8 N          257.0430    47.0090   147.3160 n8         1 9TR      -0.892800
      9 CB         257.0540    47.5430   144.9530 c3         1 9TR      -0.045400
     10 CG         257.4860    48.4240   143.7860 c3         1 9TR      -0.057400
     11 CD         258.9960    48.5440   143.6190 c3         1 9TR      -0.105400
     12 CE         259.3570    49.2720   142.3300 c3         1 9TR       0.115000
     13 NZ         260.7770    49.4830   142.1470 ns         1 9TR      -0.556900
     14 C11        261.6000    48.5010   141.7510 c          1 9TR       0.744100
     15 O12        261.2580    47.3820   141.4280 o          1 9TR      -0.589000
     16 O13        262.8790    48.9190   141.7460 os         1 9TR      -0.442900
     17 C14        263.8590    47.9720   141.3440 c3         1 9TR       0.206700
     18 C16        263.7350    48.7110   138.9480 ca         1 9TR      -0.161000
     19 N18        263.6600    49.4170   136.5790 n2         1 9TR      -0.310600
     20 N19        263.5750    50.5900   136.9090 n1         1 9TR       0.238000
     21 N20        263.4880    51.6920   137.0950 n1         1 9TR      -0.054000
     22 C23        263.9410    46.3640   139.4200 ca         1 9TR      -0.114000
     23 H21        263.8750    46.9180   136.0740 ha         1 9TR       0.143000
     24 H22        264.0490    45.0730   137.7100 ha         1 9TR       0.132000
     25 H4         258.6360    47.9190   146.3590 h1         1 9TR       0.036700
     26 H          257.4540    47.2150   148.2190 hn         1 9TR       0.325800
     27 H2         256.0510    47.1860   147.4370 hn         1 9TR       0.325800
     28 H8         255.9590    47.5020   144.9750 hc         1 9TR       0.026700
     29 H9         257.3950    46.5190   144.7740 hc         1 9TR       0.026700
     30 H10        257.0530    49.4240   143.8860 hc         1 9TR       0.031700
     31 H11        257.0580    48.0060   142.8690 hc         1 9TR       0.031700
     32 H12        259.4490    47.5480   143.6110 hc         1 9TR       0.060200
     33 H13        259.4210    49.0840   144.4680 hc         1 9TR       0.060200
     34 H14        258.8860    50.2560   142.3170 h1         1 9TR       0.048700
     35 H15        258.9620    48.7270   141.4700 h1         1 9TR       0.048700
     36 H16        261.1770    50.3490   142.4700 hn         1 9TR       0.324500
     37 H17        263.7720    47.0480   141.9190 h1         1 9TR       0.062700
     38 H18        264.8100    48.4340   141.6090 h1         1 9TR       0.062700
     39 H19        263.6530    49.7330   139.3030 ha         1 9TR       0.137000
     40 H23        264.0070    45.5530   140.1340 ha         1 9TR       0.138000
     41 O          255.9010    49.6030   146.8820 o          1 9TR      -0.843300
@<TRIPOS>BOND
     1     1    17 1   
     2     1    18 ar  
     3     1    22 ar  
     4     2     3 ar  
     5     2    18 ar  
     6     2    19 1   
     7     3     4 ar  
     8     3    23 1   
     9     4    22 ar  
    10     4    24 1   
    11     5     6 1   
    12     5     7 1   
    13     5    41 1   
    14     7     8 1   
    15     7     9 1   
    16     7    25 1   
    17     8    26 1   
    18     8    27 1   
    19     9    10 1   
    20     9    28 1   
    21     9    29 1   
    22    10    11 1   
    23    10    30 1   
    24    10    31 1   
    25    11    12 1   
    26    11    32 1   
    27    11    33 1   
    28    12    13 1   
    29    12    34 1   
    30    12    35 1   
    31    13    14 1   
    32    13    36 1   
    33    14    15 2   
    34    14    16 1   
    35    16    17 1   
    36    17    37 1   
    37    17    38 1   
    38    18    39 1   
    39    19    20 1   
    40    20    21 3   
    41    22    40 1   
@<TRIPOS>SUBSTRUCTURE
     1 9TR         1 TEMP              0 ****  ****    0 ROOT
