@<TRIPOS>MOLECULE
9TS
   14    13     1     0     0
SMALL
bcc


@<TRIPOS>ATOM
      1 C2           1.5930    -0.0540    -0.0180 c          1 9TS       0.909800
      2 C3           0.2120     0.5490     0.0880 ce         1 9TS      -0.202200
      3 C4          -0.8840    -0.1470     0.3790 c2         1 9TS      -0.226200
      4 C5          -2.2670     0.4110     0.4810 c3         1 9TS      -0.033200
      5 C6          -3.2230    -0.2360    -0.5190 c3         1 9TS      -0.081100
      6 O1           1.7150    -1.2780     0.1930 o          1 9TS      -0.839300
      7 O2           2.5100     0.7420    -0.3160 o          1 9TS      -0.839300
      8 H1           0.1290     1.6190    -0.0880 ha         1 9TS       0.086000
      9 H2          -0.7880    -1.2170     0.5500 ha         1 9TS       0.128000
     10 H3          -2.6480     0.2390     1.4930 hc         1 9TS       0.020700
     11 H4          -2.2500     1.4940     0.3350 hc         1 9TS       0.020700
     12 H5          -2.9160    -0.0310    -1.5450 hc         1 9TS       0.019033
     13 H6          -3.2520    -1.3200    -0.3930 hc         1 9TS       0.019033
     14 H7          -4.2380     0.1400    -0.3920 hc         1 9TS       0.019033
@<TRIPOS>BOND
     1     1     2 1   
     2     1     6 1   
     3     1     7 1   
     4     2     3 2   
     5     2     8 1   
     6     3     4 1   
     7     3     9 1   
     8     4     5 1   
     9     4    10 1   
    10     4    11 1   
    11     5    12 1   
    12     5    13 1   
    13     5    14 1   
@<TRIPOS>SUBSTRUCTURE
     1 9TS         1 TEMP              0 ****  ****    0 ROOT
