@<TRIPOS>MOLECULE
9TS
   14    13     1     0     0
SMALL
No Charge or Current Charge


@<TRIPOS>ATOM
      1 C2           1.5560    -0.0430    -0.0960 c          1 9TS       0.699200
      2 C3           0.1380     0.4380    -0.0450 ce         1 9TS      -0.252200
      3 C4          -0.8880    -0.1860     0.5880 c2         1 9TS      -0.276200
      4 C5          -2.3190     0.3040     0.6360 c3         1 9TS      -0.033200
      5 C6          -3.1190    -0.0990    -0.6160 c3         1 9TS      -0.081100
      6 O1           1.8500    -1.0840     0.4710 o          1 9TS      -0.734000
      7 O2           2.3610     0.6380    -0.7100 o          1 9TS      -0.734000
      8 H1          -0.0420     1.3720    -0.5740 ha         1 9TS       0.136000
      9 H2          -0.7190    -1.1250     1.1210 ha         1 9TS       0.178000
     10 H3          -2.8220    -0.1010     1.5230 hc         1 9TS       0.020700
     11 H4          -2.3420     1.3960     0.7370 hc         1 9TS       0.020700
     12 H5          -2.6650     0.3260    -1.5190 hc         1 9TS       0.019033
     13 H6          -3.1460    -1.1900    -0.7230 hc         1 9TS       0.019033
     14 H7          -4.1500     0.2660    -0.5450 hc         1 9TS       0.019033
@<TRIPOS>BOND
     1     1     2 1   
     2     1     6 1   
     3     1     7 1   
     4     2     3 2   
     5     2     8 1   
     6     3     4 1   
     7     3     9 1   
     8     4     5 1   
     9     4    10 1   
    10     4    11 1   
    11     5    12 1   
    12     5    13 1   
    13     5    14 1   
@<TRIPOS>SUBSTRUCTURE
     1 9TS         1 TEMP              0 ****  ****    0 ROOT
