@<TRIPOS>MOLECULE
9TT
   21    22     1     0     0
SMALL
No Charge or Current Charge


@<TRIPOS>ATOM
      1 C4           1.3340     1.1160     0.0170 ca         1 9TT      -0.132000
      2 C5          -0.0530     0.9210     0.0170 ca         1 9TT      -0.058800
      3 C6          -0.6150    -0.3260    -0.0070 ca         1 9TT      -0.084200
      4 C7          -1.1230     1.8720     0.0410 cc         1 9TT      -0.253200
      5 C8          -2.3130     1.1520     0.0290 cd         1 9TT      -0.153100
      6 N1          -2.0000    -0.2260    -0.0010 na         1 9TT      -0.087700
      7 C3           2.1620    -0.0240    -0.0100 ca         1 9TT       0.245000
      8 C1           0.1850    -1.4800    -0.0340 ca         1 9TT      -0.090000
      9 C2           1.5880    -1.3160    -0.0350 ca         1 9TT      -0.143000
     10 H1           1.7540     2.1180     0.0370 ha         1 9TT       0.114000
     11 H2          -1.0380     2.9570     0.0640 ha         1 9TT       0.204000
     12 H3          -3.3400     1.5080     0.0400 h4         1 9TT       0.208000
     13 H4          -2.7440    -1.9660    -0.9310 h1         1 9TT       0.046367
     14 H5          -2.7380    -2.0040     0.8600 h1         1 9TT       0.046367
     15 H6          -3.9540    -1.0230    -0.0120 h1         1 9TT       0.046367
     16 H7           3.9460     1.0420    -0.1000 hn         1 9TT       0.432000
     17 H8           4.1280    -0.6940    -0.1370 hn         1 9TT       0.432000
     18 H9          -0.2570    -2.4730    -0.0540 ha         1 9TT       0.111000
     19 H10          2.2270    -2.1940    -0.0550 ha         1 9TT       0.109000
     20 C9          -2.9160    -1.3760    -0.0220 c3         1 9TT       0.066900
     21 N2           3.5260     0.1190    -0.0120 nv         1 9TT      -1.057000
@<TRIPOS>BOND
     1     1     2 ar  
     2     1     7 ar  
     3     1    10 1   
     4     2     3 ar  
     5     2     4 1   
     6     3     6 1   
     7     3     8 ar  
     8     4     5 2   
     9     4    11 1   
    10     5     6 1   
    11     5    12 1   
    12     6    20 1   
    13     7     9 ar  
    14     7    21 1   
    15     8     9 ar  
    16     8    18 1   
    17     9    19 1   
    18    13    20 1   
    19    14    20 1   
    20    15    20 1   
    21    16    21 1   
    22    17    21 1   
@<TRIPOS>SUBSTRUCTURE
     1 9TT         1 TEMP              0 ****  ****    0 ROOT
