@<TRIPOS>MOLECULE
9TT
   21    22     1     0     0
SMALL
bcc


@<TRIPOS>ATOM
      1 C4           1.3440     1.1090     0.0510 ca         1 9TT      -0.150000
      2 C5          -0.0480     0.9490     0.0370 ca         1 9TT      -0.058800
      3 C6          -0.6020    -0.3480     0.0050 ca         1 9TT      -0.084200
      4 C7          -1.1490     1.8590     0.0440 cc         1 9TT      -0.203200
      5 C8          -2.2850     1.0970     0.0180 cd         1 9TT      -0.103100
      6 N1          -1.9680    -0.2290    -0.0070 na         1 9TT      -0.058400
      7 C3           2.1610    -0.0130     0.0380 ca         1 9TT       0.106600
      8 C1           0.2080    -1.4810    -0.0130 ca         1 9TT      -0.108000
      9 C2           1.5760    -1.3000     0.0050 ca         1 9TT      -0.161000
     10 H1           1.7800     2.1010     0.0730 ha         1 9TT       0.132000
     11 H2          -1.1080     2.9360     0.0670 ha         1 9TT       0.154000
     12 H3          -3.3180     1.4090     0.0140 h4         1 9TT       0.158000
     13 H4          -2.7630    -1.9330    -0.9350 h1         1 9TT       0.046367
     14 H5          -2.7770    -1.9700     0.8350 h1         1 9TT       0.046367
     15 H6          -3.9130    -0.9390    -0.0370 h1         1 9TT       0.046367
     16 H7           3.9050     0.9870    -0.2190 hn         1 9TT       0.376800
     17 H8           4.0520    -0.6570    -0.3100 hn         1 9TT       0.376800
     18 H9          -0.2070    -2.4810    -0.0430 ha         1 9TT       0.129000
     19 H10          2.2240    -2.1690    -0.0040 ha         1 9TT       0.127000
     20 C9          -2.8990    -1.3280    -0.0380 c3         1 9TT       0.037600
     21 N2           3.5470     0.1050     0.1160 nv         1 9TT      -0.808200
@<TRIPOS>BOND
     1     1     2 ar  
     2     1     7 ar  
     3     1    10 1   
     4     2     3 ar  
     5     2     4 1   
     6     3     6 1   
     7     3     8 ar  
     8     4     5 2   
     9     4    11 1   
    10     5     6 1   
    11     5    12 1   
    12     6    20 1   
    13     7     9 ar  
    14     7    21 1   
    15     8     9 ar  
    16     8    18 1   
    17     9    19 1   
    18    13    20 1   
    19    14    20 1   
    20    15    20 1   
    21    16    21 1   
    22    17    21 1   
@<TRIPOS>SUBSTRUCTURE
     1 9TT         1 TEMP              0 ****  ****    0 ROOT
