@<TRIPOS>MOLECULE
9TU
   45    46     1     0     0
SMALL
bcc


@<TRIPOS>ATOM
      1 C10        260.7640    48.0460   138.5720 ca         1 9TU      -0.103300
      2 C13        258.6440    48.7780   140.5980 c          1 9TU       0.744100
      3 CD         256.0560    48.9130   142.5110 c3         1 9TU      -0.105400
      4 CA         253.9280    48.6560   145.1660 c3         1 9TU       0.010500
      5 C          253.1570    47.6810   146.0950 c          1 9TU       0.901600
      6 C26        260.7930    46.8820   136.4650 ca         1 9TU      -0.128000
      7 N1         259.4910    50.8560   134.9330 n2         1 9TU      -0.088700
      8 N2         260.4720    50.5270   134.3090 n2         1 9TU      -0.088700
      9 C3         260.6630    50.5690   135.7520 cx         1 9TU       0.062700
     10 C4         261.4200    51.7700   136.2630 c3         1 9TU       0.708900
     11 F5         262.6300    51.4190   136.6950 f          1 9TU      -0.221967
     12 F6         260.7890    52.3710   137.2790 f          1 9TU      -0.221967
     13 F7         261.5720    52.6790   135.3000 f          1 9TU      -0.221967
     14 C8         260.7220    49.2880   136.4980 ca         1 9TU      -0.080300
     15 C9         260.7300    49.2570   137.8900 ca         1 9TU      -0.074000
     16 C11        260.8100    48.0160   140.0760 c3         1 9TU       0.206700
     17 O12        259.9710    48.9910   140.6780 os         1 9TU      -0.441900
     18 O14        258.1510    47.8040   140.0670 o          1 9TU      -0.585000
     19 NZ         257.9640    49.7840   141.1670 ns         1 9TU      -0.556900
     20 CE         256.5250    49.7510   141.3270 c3         1 9TU       0.112000
     21 CG         254.5390    48.9440   142.6560 c3         1 9TU      -0.055400
     22 CB         253.9720    48.0480   143.7600 c3         1 9TU      -0.053400
     23 N          255.2620    49.0160   145.6250 n8         1 9TU      -0.891800
     24 OXT        253.8380    46.9800   146.8710 o          1 9TU      -0.839800
     25 O          251.9160    47.6570   145.9590 o          1 9TU      -0.839800
     26 C25        260.7950    46.8590   137.8510 ca         1 9TU      -0.084000
     27 C27        260.7500    48.0900   135.7880 ca         1 9TU      -0.106000
     28 HD2        256.3860    47.8790   142.3710 hc         1 9TU       0.059700
     29 HD3        256.5230    49.2740   143.4280 hc         1 9TU       0.059700
     30 HA         253.3460    49.5830   145.0980 h1         1 9TU       0.035700
     31 H4         260.8150    45.9550   135.9070 ha         1 9TU       0.136000
     32 H7         260.6920    50.1750   138.4630 ha         1 9TU       0.151000
     33 H8         260.5770    47.0150   140.4430 h1         1 9TU       0.066200
     34 H9         261.8130    48.2660   140.4220 h1         1 9TU       0.066200
     35 HZ         258.4790    50.5010   141.6520 hn         1 9TU       0.321500
     36 HE2        256.1940    50.7830   141.4470 h1         1 9TU       0.048200
     37 HE3        256.0730    49.3850   140.4040 h1         1 9TU       0.048200
     38 HG2        254.2040    49.9750   142.8170 hc         1 9TU       0.018700
     39 HG3        254.0990    48.6370   141.7010 hc         1 9TU       0.018700
     40 HB2        252.9490    47.7720   143.4960 hc         1 9TU       0.042200
     41 HB3        254.5370    47.1070   143.7910 hc         1 9TU       0.042200
     42 H          255.1790    49.4680   146.5290 hn         1 9TU       0.325800
     43 H2         255.7620    48.1560   145.8220 hn         1 9TU       0.325800
     44 H21        260.8120    45.9110   138.3750 ha         1 9TU       0.140000
     45 H22        260.7410    48.0870   134.7050 ha         1 9TU       0.136000
@<TRIPOS>BOND
     1     1    15 ar  
     2     1    16 1   
     3     1    26 ar  
     4     2    17 1   
     5     2    18 2   
     6     2    19 1   
     7     3    20 1   
     8     3    21 1   
     9     3    28 1   
    10     3    29 1   
    11     4     5 1   
    12     4    22 1   
    13     4    23 1   
    14     4    30 1   
    15     5    24 1   
    16     5    25 1   
    17     6    26 ar  
    18     6    27 ar  
    19     6    31 1   
    20     7     8 2   
    21     7     9 1   
    22     8     9 1   
    23     9    10 1   
    24     9    14 1   
    25    10    11 1   
    26    10    12 1   
    27    10    13 1   
    28    14    15 ar  
    29    14    27 ar  
    30    15    32 1   
    31    16    17 1   
    32    16    33 1   
    33    16    34 1   
    34    19    20 1   
    35    19    35 1   
    36    20    36 1   
    37    20    37 1   
    38    21    22 1   
    39    21    38 1   
    40    21    39 1   
    41    22    40 1   
    42    22    41 1   
    43    23    42 1   
    44    23    43 1   
    45    26    44 1   
    46    27    45 1   
@<TRIPOS>SUBSTRUCTURE
     1 9TU         1 TEMP              0 ****  ****    0 ROOT
