@<TRIPOS>MOLECULE
9TV
   47    50     1     0     0
SMALL
No Charge or Current Charge


@<TRIPOS>ATOM
      1 C2           0.4180    -1.0000     0.1070 cc         1 9TV      -0.001400
      2 N4           1.7920    -0.9240    -0.0910 ns         1 9TV      -0.406100
      3 C5          -3.1220     0.0160     0.0530 ca         1 9TV      -0.120500
      4 C7           6.3360     0.4020     0.2490 ca         1 9TV       0.123300
      5 C9           4.0460    -0.1750    -0.7240 c3         1 9TV      -0.157400
      6 C10         -5.5750    -0.0970     0.1990 ca         1 9TV      -0.078300
      7 C11          4.8380     0.6650     0.3120 c3         1 9TV      -0.101700
      8 C15         -3.2300     1.3740    -0.3160 ca         1 9TV      -0.092000
      9 C18          8.3860     0.9430    -0.6410 ca         1 9TV       0.110900
     10 C20         -6.8300    -0.9360     0.4750 c6         1 9TV      -0.029100
     11 C21         -7.0200     1.9690    -0.3210 c6         1 9TV      -0.030100
     12 C22         -8.1040    -0.0890     0.6900 c6         1 9TV      -0.073400
     13 C           -0.5470    -0.0860    -0.1990 cd         1 9TV      -0.221000
     14 N           -0.2880    -2.0540     0.6730 na         1 9TV      -0.041200
     15 O            2.0540     1.1370    -1.0790 o          1 9TV      -0.557100
     16 C1          -1.7930    -0.6270     0.1960 cd         1 9TV       0.325500
     17 N3          -1.6560    -1.8330     0.7300 nc         1 9TV      -0.520800
     18 C6           2.5390     0.1000    -0.6490 c          1 9TV       0.615100
     19 C8          -4.3100    -0.7050     0.3150 ca         1 9TV      -0.085000
     20 N12          6.8160    -0.5920     1.0310 nb         1 9TV      -0.175000
     21 N13          7.0600     1.1820    -0.5860 nb         1 9TV      -0.175000
     22 C14         -5.6660     1.2600    -0.1910 ca         1 9TV      -0.065300
     23 C16         -4.4880     1.9860    -0.4380 ca         1 9TV      -0.118000
     24 C17          8.9810    -0.0680     0.1330 ca         1 9TV      -0.219000
     25 C19          8.1430    -0.8240     0.9700 ca         1 9TV       0.110900
     26 C23         -8.2200     0.9990    -0.3960 c6         1 9TV      -0.072400
     27 H1           2.3520    -1.7140     0.2070 hn         1 9TV       0.318500
     28 H2           4.3980     0.0930    -1.7270 hc         1 9TV       0.068200
     29 H3           4.2470    -1.2370    -0.5360 hc         1 9TV       0.068200
     30 H4           4.4600     0.4460     1.3190 hc         1 9TV       0.084200
     31 H5           4.6370     1.7310     0.1420 hc         1 9TV       0.084200
     32 H6          -2.3420     1.9710    -0.5070 ha         1 9TV       0.117000
     33 H7           8.9740     1.5670    -1.3120 h4         1 9TV       0.026600
     34 H8          -6.9890    -1.6170    -0.3720 hc         1 9TV       0.047700
     35 H9          -6.6680    -1.5760     1.3540 hc         1 9TV       0.047700
     36 H10         -7.1510     2.6360     0.5420 hc         1 9TV       0.047200
     37 H11         -7.0220     2.6170    -1.2090 hc         1 9TV       0.047200
     38 H12         -8.9910    -0.7380     0.6750 hc         1 9TV       0.041200
     39 H13         -8.0750     0.3810     1.6830 hc         1 9TV       0.041200
     40 H14         -0.3960     0.8770    -0.6660 ha         1 9TV       0.169000
     41 H15          0.1180    -2.9200     1.0220 hn         1 9TV       0.366000
     42 H16         -4.2570    -1.7510     0.6070 ha         1 9TV       0.124000
     43 H17         -4.5470     3.0340    -0.7230 ha         1 9TV       0.109000
     44 H18         10.0500    -0.2580     0.0860 ha         1 9TV       0.137000
     45 H19          8.5350    -1.6230     1.5970 h4         1 9TV       0.026600
     46 H20         -9.1600     1.5550    -0.2780 hc         1 9TV       0.041200
     47 H21         -8.2560     0.5280    -1.3890 hc         1 9TV       0.041200
@<TRIPOS>BOND
     1     1     2 1   
     2     1    13 2   
     3     1    14 1   
     4     2    18 1   
     5     2    27 1   
     6     3     8 ar  
     7     3    16 1   
     8     3    19 ar  
     9     4     7 1   
    10     4    20 ar  
    11     4    21 ar  
    12     5     7 1   
    13     5    18 1   
    14     5    28 1   
    15     5    29 1   
    16     6    10 1   
    17     6    19 ar  
    18     6    22 ar  
    19     7    30 1   
    20     7    31 1   
    21     8    23 ar  
    22     8    32 1   
    23     9    21 ar  
    24     9    24 ar  
    25     9    33 1   
    26    10    12 1   
    27    10    34 1   
    28    10    35 1   
    29    11    22 1   
    30    11    26 1   
    31    11    36 1   
    32    11    37 1   
    33    12    26 1   
    34    12    38 1   
    35    12    39 1   
    36    13    16 1   
    37    13    40 1   
    38    14    17 1   
    39    14    41 1   
    40    15    18 2   
    41    16    17 2   
    42    19    42 1   
    43    20    25 ar  
    44    22    23 ar  
    45    23    43 1   
    46    24    25 ar  
    47    24    44 1   
    48    25    45 1   
    49    26    46 1   
    50    26    47 1   
@<TRIPOS>SUBSTRUCTURE
     1 9TV         1 TEMP              0 ****  ****    0 ROOT
