@<TRIPOS>MOLECULE
9TV
   47    50     1     0     0
SMALL
bcc


@<TRIPOS>ATOM
      1 C2           0.3630    -0.9170    -0.0670 cc         1 9TV       0.049300
      2 N4           1.7420    -0.9640    -0.0510 ns         1 9TV      -0.473100
      3 C5          -3.1350     0.0840    -0.1060 ca         1 9TV      -0.120500
      4 C7           6.3730     0.5560     0.1610 ca         1 9TV       0.649300
      5 C9           4.0330    -0.2340    -0.0080 c3         1 9TV      -0.157400
      6 C10         -5.5550    -0.1080     0.0910 ca         1 9TV      -0.078300
      7 C11          4.9350     0.9730     0.2330 c3         1 9TV      -0.101700
      8 C15         -3.2820     1.4530    -0.3340 ca         1 9TV      -0.110000
      9 C18          8.2320     0.2200    -1.0910 ca         1 9TV       0.439200
     10 C20         -6.7570    -0.9930     0.3080 c6         1 9TV      -0.029100
     11 C21         -7.0430     1.9370    -0.1430 c6         1 9TV      -0.030100
     12 C22         -8.0110    -0.2140     0.6810 c6         1 9TV      -0.073400
     13 C           -0.5530     0.1140    -0.0770 cd         1 9TV      -0.304300
     14 N           -0.3500    -2.0600    -0.0730 na         1 9TV      -0.041600
     15 O            2.1460     1.2590     0.0720 o          1 9TV      -0.557100
     16 C1          -1.8070    -0.5370    -0.0920 cd         1 9TV       0.390800
     17 N3          -1.6650    -1.8500    -0.0910 nc         1 9TV      -0.520800
     18 C6           2.5640     0.1200     0.0130 c          1 9TV       0.682100
     19 C8          -4.2840    -0.6730     0.1040 ca         1 9TV      -0.103000
     20 N12          6.9390     0.1110     1.2790 nb         1 9TV      -0.701000
     21 N13          6.9710     0.6250    -1.0250 nb         1 9TV      -0.701000
     22 C14         -5.6930     1.2640    -0.1410 ca         1 9TV      -0.065300
     23 C16         -4.5420     2.0230    -0.3490 ca         1 9TV      -0.136000
     24 C17          8.9140    -0.2580     0.0150 ca         1 9TV      -0.367600
     25 C19          8.2010    -0.2920     1.2000 ca         1 9TV       0.439200
     26 C23         -8.2010     0.9570    -0.2720 c6         1 9TV      -0.072400
     27 H1           2.1710    -1.8770    -0.0990 hn         1 9TV       0.318500
     28 H2           4.2620    -0.6870    -0.9780 hc         1 9TV       0.068200
     29 H3           4.2260    -1.0070     0.7410 hc         1 9TV       0.068200
     30 H4           4.7300     1.4000     1.2140 hc         1 9TV       0.084200
     31 H5           4.7450     1.7380    -0.5190 hc         1 9TV       0.084200
     32 H6          -2.4150     2.0780    -0.5060 ha         1 9TV       0.135000
     33 H7           8.7150     0.2810    -2.0600 h4         1 9TV       0.026600
     34 H8          -6.9470    -1.5580    -0.6110 hc         1 9TV       0.047700
     35 H9          -6.5290    -1.7400     1.0730 hc         1 9TV       0.047700
     36 H10         -7.1510     2.5040     0.7880 hc         1 9TV       0.047200
     37 H11         -7.0800     2.6780    -0.9460 hc         1 9TV       0.047200
     38 H12         -8.8770    -0.8770     0.6600 hc         1 9TV       0.041200
     39 H13         -7.9270     0.1620     1.7060 hc         1 9TV       0.041200
     40 H14         -0.3560     1.1700    -0.0660 ha         1 9TV       0.187000
     41 H15          0.0040    -3.0030    -0.0730 hn         1 9TV       0.315700
     42 H16         -4.1890    -1.7370     0.2890 ha         1 9TV       0.142000
     43 H17         -4.6380     3.0880    -0.5290 ha         1 9TV       0.127000
     44 H18          9.9410    -0.5860    -0.0450 ha         1 9TV       0.155000
     45 H19          8.6570    -0.6520     2.1150 h4         1 9TV       0.026600
     46 H20         -9.1430     1.4710    -0.0750 hc         1 9TV       0.041200
     47 H21         -8.2580     0.5800    -1.2990 hc         1 9TV       0.041200
@<TRIPOS>BOND
     1     1     2 1   
     2     1    13 2   
     3     1    14 1   
     4     2    18 1   
     5     2    27 1   
     6     3     8 ar  
     7     3    16 1   
     8     3    19 ar  
     9     4     7 1   
    10     4    20 ar  
    11     4    21 ar  
    12     5     7 1   
    13     5    18 1   
    14     5    28 1   
    15     5    29 1   
    16     6    10 1   
    17     6    19 ar  
    18     6    22 ar  
    19     7    30 1   
    20     7    31 1   
    21     8    23 ar  
    22     8    32 1   
    23     9    21 ar  
    24     9    24 ar  
    25     9    33 1   
    26    10    12 1   
    27    10    34 1   
    28    10    35 1   
    29    11    22 1   
    30    11    26 1   
    31    11    36 1   
    32    11    37 1   
    33    12    26 1   
    34    12    38 1   
    35    12    39 1   
    36    13    16 1   
    37    13    40 1   
    38    14    17 1   
    39    14    41 1   
    40    15    18 2   
    41    16    17 2   
    42    19    42 1   
    43    20    25 ar  
    44    22    23 ar  
    45    23    43 1   
    46    24    25 ar  
    47    24    44 1   
    48    25    45 1   
    49    26    46 1   
    50    26    47 1   
@<TRIPOS>SUBSTRUCTURE
     1 9TV         1 TEMP              0 ****  ****    0 ROOT
