@<TRIPOS>MOLECULE
9TW
   16    16     1     0     0
SMALL
No Charge or Current Charge


@<TRIPOS>ATOM
      1 C1          -0.2210    -0.7670     0.0120 ca         1 9TW      -0.052000
      2 C2           1.1200    -0.3440     0.0180 ca         1 9TW       0.052000
      3 C3           1.4240     1.0290     0.0210 ca         1 9TW       0.202000
      4 C4           0.3910     1.9780     0.0170 ca         1 9TW      -0.157000
      5 C5          -0.9510     1.5580     0.0110 ca         1 9TW      -0.031000
      6 C6          -1.2760     0.1810     0.0080 ca         1 9TW      -0.168600
      7 Cl1          2.4070    -1.5500     0.0230 cl         1 9TW      -0.163000
      8 F1           2.7110     1.4470     0.0270 f          1 9TW      -0.155000
      9 C7          -2.7300    -0.2370     0.0010 c          1 9TW       0.615700
     10 O1          -3.6450     0.5700    -0.0020 o          1 9TW      -0.583100
     11 N1          -3.0200    -1.5560    -0.0010 nt         1 9TW      -0.598000
     12 H1          -0.4230    -1.8350     0.0100 ha         1 9TW       0.134000
     13 H2           0.6320     3.0380     0.0190 ha         1 9TW       0.141000
     14 H3          -1.7390     2.3090     0.0080 ha         1 9TW       0.144000
     15 H4          -2.2820    -2.2420     0.0020 hn         1 9TW       0.309500
     16 H5          -3.9870    -1.8450    -0.0050 hn         1 9TW       0.309500
@<TRIPOS>BOND
     1     1     2 ar  
     2     1     6 ar  
     3     1    12 1   
     4     2     3 ar  
     5     2     7 1   
     6     3     4 ar  
     7     3     8 1   
     8     4     5 ar  
     9     4    13 1   
    10     5     6 ar  
    11     5    14 1   
    12     6     9 1   
    13     9    10 2   
    14     9    11 1   
    15    11    15 1   
    16    11    16 1   
@<TRIPOS>SUBSTRUCTURE
     1 9TW         1 TEMP              0 ****  ****    0 ROOT
