@<TRIPOS>MOLECULE
9TW
   16    16     1     0     0
SMALL
abcg2


@<TRIPOS>ATOM
      1 C1          -0.2170    -0.7670    -0.1850 ca         1 9TW      -0.052000
      2 C2           1.0990    -0.3450    -0.1010 ca         1 9TW       0.052000
      3 C3           1.3750     1.0020     0.0710 ca         1 9TW       0.202000
      4 C4           0.3580     1.9330     0.1460 ca         1 9TW      -0.157000
      5 C5          -0.9550     1.5080     0.0500 ca         1 9TW      -0.031000
      6 C6          -1.2530     0.1570    -0.0990 ca         1 9TW      -0.168600
      7 CL1          2.3970    -1.4680    -0.2180 cl         1 9TW      -0.163000
      8 F1           2.6420     1.3990     0.1570 f          1 9TW      -0.155000
      9 C7          -2.6910    -0.2440    -0.1970 c          1 9TW       0.615700
     10 O1          -3.5370     0.5320    -0.5840 o          1 9TW      -0.583100
     11 N1          -2.9670    -1.5240     0.1600 nt         1 9TW      -0.598000
     12 H1          -0.4110    -1.8190    -0.3440 ha         1 9TW       0.134000
     13 H2           0.5970     2.9790     0.2770 ha         1 9TW       0.141000
     14 H3          -1.7560     2.2320     0.1000 ha         1 9TW       0.144000
     15 H4          -2.3370    -2.0420     0.7460 hn         1 9TW       0.309500
     16 H5          -3.9340    -1.7990     0.1880 hn         1 9TW       0.309500
@<TRIPOS>BOND
     1     1     2 ar  
     2     1     6 ar  
     3     1    12 1   
     4     2     3 ar  
     5     2     7 1   
     6     3     4 ar  
     7     3     8 1   
     8     4     5 ar  
     9     4    13 1   
    10     5     6 ar  
    11     5    14 1   
    12     6     9 1   
    13     9    10 2   
    14     9    11 1   
    15    11    15 1   
    16    11    16 1   
@<TRIPOS>SUBSTRUCTURE
     1 9TW         1 TEMP              0 ****  ****    0 ROOT
