@<TRIPOS>MOLECULE
9TX
   41    41     1     0     0
SMALL
bcc


@<TRIPOS>ATOM
      1 C15        -21.8890     3.5470    12.1930 ca         1 9TX      -0.112300
      2 C17        -21.8610     4.4620     9.9540 ca         1 9TX       0.014000
      3 C20        -21.6830     3.1790     9.4300 ca         1 9TX      -0.103000
      4 C21        -21.6080     2.0940    10.2860 ca         1 9TX      -0.137000
      5 C22        -21.7160     2.2750    11.6580 ca         1 9TX      -0.091000
      6 C          -29.6880     4.5790    18.8180 c          1 9TX       0.935600
      7 OXT        -29.5740     4.9770    19.9980 o          1 9TX      -0.840300
      8 CA         -28.6860     3.4680    18.4080 c3         1 9TX       0.022500
      9 N          -28.7900     2.3880    19.3930 n8         1 9TX      -0.880800
     10 CB         -28.8970     2.8890    17.0120 c3         1 9TX      -0.037400
     11 CG         -28.4550     3.7810    15.8540 c3         1 9TX      -0.066400
     12 CD         -26.9470     3.9860    15.7610 c3         1 9TX      -0.103400
     13 CE         -26.5630     4.7630    14.5070 c3         1 9TX       0.112000
     14 NZ         -25.1490     5.0520    14.4000 ns         1 9TX      -0.560900
     15 C11        -24.2550     4.1300    14.0100 c          1 9TX       0.746100
     16 O12        -24.5200     3.0090    13.6310 o          1 9TX      -0.587000
     17 O13        -23.0020     4.6160    14.0840 os         1 9TX      -0.442900
     18 C14        -21.9550     3.7440    13.6830 c3         1 9TX       0.208700
     19 C16        -21.9580     4.6380    11.3350 ca         1 9TX      -0.084000
     20 C18        -21.9360     5.5890     9.0810 cg         1 9TX      -0.116000
     21 C19        -22.0030     6.5410     8.3470 c1         1 9TX      -0.154500
     22 H201       -21.6050     3.0390     8.3600 ha         1 9TX       0.132000
     23 H211       -21.4740     1.0990     9.8820 ha         1 9TX       0.130000
     24 H221       -21.6690     1.4180    12.3190 ha         1 9TX       0.136000
     25 HA         -27.6870     3.9370    18.4380 h1         1 9TX      -0.009300
     26 H2         -27.9940     1.7700    19.2960 hn         1 9TX       0.319800
     27 H          -28.7160     2.7980    20.3150 hn         1 9TX       0.319800
     28 HB2        -29.9510     2.6300    16.8900 hc         1 9TX       0.027200
     29 HB3        -28.3420     1.9460    16.9400 hc         1 9TX       0.027200
     30 HG2        -28.9550     4.7490    15.9240 hc         1 9TX       0.042200
     31 HG3        -28.8000     3.3280    14.9180 hc         1 9TX       0.042200
     32 HD2        -26.4410     3.0160    15.7510 hc         1 9TX       0.044700
     33 HD3        -26.5750     4.5230    16.6380 hc         1 9TX       0.044700
     34 HE2        -27.0860     5.7200    14.4910 h1         1 9TX       0.051700
     35 HE3        -26.8860     4.2180    13.6170 h1         1 9TX       0.051700
     36 HZ         -24.8120     5.9260    14.7700 hn         1 9TX       0.321500
     37 H142       -22.0290     2.7800    14.1910 h1         1 9TX       0.062200
     38 H141       -21.0440     4.2310    14.0340 h1         1 9TX       0.062200
     39 H161       -22.0870     5.6380    11.7310 ha         1 9TX       0.144000
     40 H191       -22.0640     7.3800     7.6920 ha         1 9TX       0.165500
     41 O          -30.5070     4.9930    17.9760 o          1 9TX      -0.840300
@<TRIPOS>BOND
     1     1     5 ar  
     2     1    18 1   
     3     1    19 ar  
     4     2     3 ar  
     5     2    19 ar  
     6     2    20 1   
     7     3     4 ar  
     8     3    22 1   
     9     4     5 ar  
    10     4    23 1   
    11     5    24 1   
    12     6     7 1   
    13     6     8 1   
    14     6    41 1   
    15     8     9 1   
    16     8    10 1   
    17     8    25 1   
    18     9    26 1   
    19     9    27 1   
    20    10    11 1   
    21    10    28 1   
    22    10    29 1   
    23    11    12 1   
    24    11    30 1   
    25    11    31 1   
    26    12    13 1   
    27    12    32 1   
    28    12    33 1   
    29    13    14 1   
    30    13    34 1   
    31    13    35 1   
    32    14    15 1   
    33    14    36 1   
    34    15    16 2   
    35    15    17 1   
    36    17    18 1   
    37    18    37 1   
    38    18    38 1   
    39    19    39 1   
    40    20    21 3   
    41    21    40 1   
@<TRIPOS>SUBSTRUCTURE
     1 9TX         1 TEMP              0 ****  ****    0 ROOT
