@<TRIPOS>MOLECULE
9TY
   13    13     1     0     0
SMALL
abcg2


@<TRIPOS>ATOM
      1 C02         -1.3020     0.3500    -0.1320 c          1 9TY       0.759000
      2 C03         -0.0130    -0.4340     0.0730 cx         1 9TY      -0.282000
      3 C04          1.2830     0.3620     0.0300 c          1 9TY       0.759000
      4 C07         -0.0300    -1.8380    -0.4610 cx         1 9TY      -0.145900
      5 C08         -0.0020    -1.6060     1.0130 cx         1 9TY      -0.145900
      6 O01         -2.2830     0.0870     0.5940 o          1 9TY      -0.770750
      7 O05          1.2410     1.4950     0.5520 o          1 9TY      -0.770750
      8 O06          2.2960    -0.1820    -0.4590 o          1 9TY      -0.770750
      9 O09         -1.2860     1.1740    -1.0700 o          1 9TY      -0.770750
     10 H1          -0.9530    -2.2070    -0.8950 hc         1 9TY       0.034200
     11 H2           0.8680    -2.2010    -0.9440 hc         1 9TY       0.034200
     12 H3           0.9190    -1.8260     1.5400 hc         1 9TY       0.034200
     13 H4          -0.9020    -1.8000     1.5830 hc         1 9TY       0.034200
@<TRIPOS>BOND
     1     1     2 1   
     2     1     6 1   
     3     1     9 1   
     4     2     3 1   
     5     2     4 1   
     6     2     5 1   
     7     3     7 1   
     8     3     8 1   
     9     4     5 1   
    10     4    10 1   
    11     4    11 1   
    12     5    12 1   
    13     5    13 1   
@<TRIPOS>SUBSTRUCTURE
     1 9TY         1 TEMP              0 ****  ****    0 ROOT
