@<TRIPOS>MOLECULE
9TY
   13    13     1     0     0
SMALL
No Charge or Current Charge


@<TRIPOS>ATOM
      1 C02         -1.2430     0.3640    -0.2130 c          1 9TY       0.759000
      2 C03         -0.0110    -0.4410     0.0730 cx         1 9TY      -0.282000
      3 C04          1.2300     0.4000     0.0870 c          1 9TY       0.759000
      4 C07          0.0730    -1.8730    -0.4490 cx         1 9TY      -0.145900
      5 C08         -0.1100    -1.6280     1.0270 cx         1 9TY      -0.145900
      6 O01         -1.8610     0.8390     0.7290 o          1 9TY      -0.770750
      7 O05          1.5890     0.8890     1.1490 o          1 9TY      -0.770750
      8 O06          1.8510     0.5400    -0.9560 o          1 9TY      -0.770750
      9 O09         -1.6000     0.4900    -1.3760 o          1 9TY      -0.770750
     10 H1          -0.7760    -2.2680    -1.0010 hc         1 9TY       0.034200
     11 H2           1.0400    -2.2420    -0.7800 hc         1 9TY       0.034200
     12 H3           0.7360    -1.8340     1.6780 hc         1 9TY       0.034200
     13 H4          -1.0810    -1.8600     1.4570 hc         1 9TY       0.034200
@<TRIPOS>BOND
     1     1     2 1   
     2     1     6 1   
     3     1     9 1   
     4     2     3 1   
     5     2     4 1   
     6     2     5 1   
     7     3     7 1   
     8     3     8 1   
     9     4     5 1   
    10     4    10 1   
    11     4    11 1   
    12     5    12 1   
    13     5    13 1   
@<TRIPOS>SUBSTRUCTURE
     1 9TY         1 TEMP              0 ****  ****    0 ROOT
