@<TRIPOS>MOLECULE
9TZ
   17    17     1     0     0
SMALL
abcg2


@<TRIPOS>ATOM
      1 C4           0.9530     1.8120     0.0540 ca         1 9TZ      -0.125000
      2 C5          -0.3360     1.2770     0.0280 ca         1 9TZ      -0.063300
      3 C6          -0.4760    -0.1200    -0.0230 ca         1 9TZ      -0.104600
      4 C7          -1.4960     2.2330     0.0830 c3         1 9TZ      -0.023800
      5 C8          -1.8250    -0.8370    -0.0730 c          1 9TZ       0.712600
      6 C3           2.0910     1.0200     0.0070 ca         1 9TZ      -0.182000
      7 C1           0.6650    -0.9210    -0.0440 ca         1 9TZ      -0.125000
      8 C2           1.9170    -0.3470    -0.0460 ca         1 9TZ       0.124000
      9 F1           3.0030    -1.1440    -0.0920 f          1 9TZ      -0.212000
     10 O1          -1.8490    -1.9920     0.3960 o          1 9TZ      -0.716500
     11 O2          -2.7740    -0.2260    -0.5940 o          1 9TZ      -0.716500
     12 H1           1.0740     2.8870     0.1110 ha         1 9TZ       0.085000
     13 H2          -2.0470     2.2540    -0.8560 hc         1 9TZ       0.035033
     14 H3          -2.2120     1.9700     0.8610 hc         1 9TZ       0.035033
     15 H4          -1.1380     3.2420     0.2860 hc         1 9TZ       0.035033
     16 H5           3.0800     1.4580     0.0170 ha         1 9TZ       0.100000
     17 H6           0.5660    -1.9980    -0.0630 ha         1 9TZ       0.142000
@<TRIPOS>BOND
     1     1     2 ar  
     2     1     6 ar  
     3     1    12 1   
     4     2     3 ar  
     5     2     4 1   
     6     3     5 1   
     7     3     7 ar  
     8     4    13 1   
     9     4    14 1   
    10     4    15 1   
    11     5    10 1   
    12     5    11 1   
    13     6     8 ar  
    14     6    16 1   
    15     7     8 ar  
    16     7    17 1   
    17     8     9 1   
@<TRIPOS>SUBSTRUCTURE
     1 9TZ         1 TEMP              0 ****  ****    0 ROOT
