@<TRIPOS>MOLECULE
9TZ
   17    17     1     0     0
SMALL
No Charge or Current Charge


@<TRIPOS>ATOM
      1 C4           0.9750     1.8430     0.0470 ca         1 9TZ      -0.125000
      2 C5          -0.3200     1.2840     0.0360 ca         1 9TZ      -0.063300
      3 C6          -0.4750    -0.1270    -0.0390 ca         1 9TZ      -0.104600
      4 C7          -1.5250     2.2170     0.1260 c3         1 9TZ      -0.023800
      5 C8          -1.8370    -0.7880    -0.0640 c          1 9TZ       0.712600
      6 C3           2.1110     1.0190    -0.0080 ca         1 9TZ      -0.182000
      7 C1           0.6780    -0.9430    -0.0850 ca         1 9TZ      -0.125000
      8 C2           1.9580    -0.3720    -0.0710 ca         1 9TZ       0.124000
      9 F1           3.0500    -1.1650    -0.1200 f          1 9TZ      -0.212000
     10 O1          -2.0510    -1.6890     0.7360 o          1 9TZ      -0.716500
     11 O2          -2.6370    -0.4520    -0.9270 o          1 9TZ      -0.716500
     12 H1           1.1030     2.9220     0.1030 ha         1 9TZ       0.085000
     13 H2          -2.0220     2.3120    -0.8460 hc         1 9TZ       0.035033
     14 H3          -2.2610     1.8500     0.8510 hc         1 9TZ       0.035033
     15 H4          -1.2330     3.2250     0.4460 hc         1 9TZ       0.035033
     16 H5           3.1050     1.4570     0.0030 ha         1 9TZ       0.100000
     17 H6           0.5780    -2.0250    -0.1370 ha         1 9TZ       0.142000
@<TRIPOS>BOND
     1     1     2 ar  
     2     1     6 ar  
     3     1    12 1   
     4     2     3 ar  
     5     2     4 1   
     6     3     5 1   
     7     3     7 ar  
     8     4    13 1   
     9     4    14 1   
    10     4    15 1   
    11     5    10 1   
    12     5    11 1   
    13     6     8 ar  
    14     6    16 1   
    15     7     8 ar  
    16     7    17 1   
    17     8     9 1   
@<TRIPOS>SUBSTRUCTURE
     1 9TZ         1 TEMP              0 ****  ****    0 ROOT
