@<TRIPOS>MOLECULE
9U0
   46    46     1     0     0
SMALL
bcc


@<TRIPOS>ATOM
      1 C15        263.5700    34.5830   138.7480 c2         1 9U0      -0.158200
      2 C17        263.8860    34.8860   136.3290 c3         1 9U0      -0.037200
      3 C20        262.7450    37.3150   138.4750 c3         1 9U0      -0.067400
      4 C21        262.9490    36.6380   139.8410 c3         1 9U0      -0.105400
      5 C          255.9110    32.8790   146.0670 c          1 9U0       0.904600
      6 O          256.0980    32.6710   147.2830 o          1 9U0      -0.838800
      7 CA         256.2480    34.2920   145.5210 c3         1 9U0       0.012500
      8 N          256.5330    35.3020   146.5310 n8         1 9U0      -0.891800
      9 CB         257.4140    34.2000   144.5320 c3         1 9U0      -0.054400
     10 CG         257.7200    35.5170   143.8280 c3         1 9U0      -0.068400
     11 CD         258.7360    35.4000   142.6970 c3         1 9U0      -0.091400
     12 CE         260.1170    34.9760   143.1700 c3         1 9U0       0.108000
     13 NZ         261.0490    34.9970   142.0590 ns         1 9U0      -0.610900
     14 C11        262.2840    34.4760   142.1600 c          1 9U0       0.764100
     15 O12        262.7040    33.9320   143.1620 o          1 9U0      -0.540000
     16 C14        262.7160    35.1130   139.8370 c3         1 9U0       0.201300
     17 C16        263.0750    34.5130   137.5160 c2         1 9U0      -0.167200
     18 C18        263.6770    36.4090   136.1650 c3         1 9U0      -0.074400
     19 C19        263.9020    37.2420   137.4400 c3         1 9U0      -0.070400
     20 HC15       264.6460    34.6340   138.8990 ha         1 9U0       0.134000
     21 H3         264.9460    34.6830   136.5020 hc         1 9U0       0.047200
     22 H4         263.5880    34.3710   135.4130 hc         1 9U0       0.047200
     23 H5         262.5610    38.3710   138.6880 hc         1 9U0       0.038200
     24 H6         261.8150    36.9550   138.0260 hc         1 9U0       0.038200
     25 H7         262.2800    37.1080   140.5680 hc         1 9U0       0.054200
     26 H8         263.9670    36.8260   140.1960 hc         1 9U0       0.054200
     27 HA         255.3730    34.6380   144.9560 h1         1 9U0       0.034700
     28 H          255.7200    35.4020   147.1260 hn         1 9U0       0.326300
     29 H2         257.2470    34.9300   147.1470 hn         1 9U0       0.326300
     30 HB2        257.1800    33.4390   143.7840 hc         1 9U0       0.041200
     31 HB3        258.3010    33.8410   145.0670 hc         1 9U0       0.041200
     32 HG2        258.0650    36.2560   144.5540 hc         1 9U0       0.040200
     33 HG3        256.7900    35.9150   143.4100 hc         1 9U0       0.040200
     34 HD2        258.8140    36.3700   142.1950 hc         1 9U0       0.026700
     35 HD3        258.3770    34.6880   141.9460 hc         1 9U0       0.026700
     36 HE2        260.0830    33.9700   143.5900 h1         1 9U0       0.060200
     37 HE3        260.4550    35.6450   143.9700 h1         1 9U0       0.060200
     38 HZ         260.7700    35.5310   141.2520 hn         1 9U0       0.305500
     39 H23        261.6670    34.8940   139.6070 h1         1 9U0       0.047700
     40 H24        261.9950    34.5140   137.3820 ha         1 9U0       0.117000
     41 H26        264.3530    36.7670   135.3840 hc         1 9U0       0.036700
     42 H27        262.6640    36.5920   135.7930 hc         1 9U0       0.036700
     43 H28        264.8240    36.9130   137.9300 hc         1 9U0       0.037700
     44 H29        264.1060    38.2620   137.1090 hc         1 9U0       0.037700
     45 O13        263.0930    34.5360   141.0920 os         1 9U0      -0.428900
     46 OXT        255.4870    32.0580   145.2260 o          1 9U0      -0.838800
@<TRIPOS>BOND
     1     1    16 1   
     2     1    17 2   
     3     1    20 1   
     4     2    17 1   
     5     2    18 1   
     6     2    21 1   
     7     2    22 1   
     8     3     4 1   
     9     3    19 1   
    10     3    23 1   
    11     3    24 1   
    12     4    16 1   
    13     4    25 1   
    14     4    26 1   
    15     5     6 1   
    16     5     7 1   
    17     5    46 1   
    18     7     8 1   
    19     7     9 1   
    20     7    27 1   
    21     8    28 1   
    22     8    29 1   
    23     9    10 1   
    24     9    30 1   
    25     9    31 1   
    26    10    11 1   
    27    10    32 1   
    28    10    33 1   
    29    11    12 1   
    30    11    34 1   
    31    11    35 1   
    32    12    13 1   
    33    12    36 1   
    34    12    37 1   
    35    13    14 1   
    36    13    38 1   
    37    14    15 2   
    38    14    45 1   
    39    16    39 1   
    40    16    45 1   
    41    17    40 1   
    42    18    19 1   
    43    18    41 1   
    44    18    42 1   
    45    19    43 1   
    46    19    44 1   
@<TRIPOS>SUBSTRUCTURE
     1 9U0         1 TEMP              0 ****  ****    0 ROOT
