@<TRIPOS>MOLECULE
9U1
   13    12     1     0     0
SMALL
bcc


@<TRIPOS>ATOM
      1 C1          29.1670   -10.3010    34.5830 c2         1 9U1       0.945100
      2 C3          30.4610   -10.7200    32.6900 c          1 9U1       0.828500
      3 N2          30.1740    -9.9790    33.7950 ne         1 9U1      -0.878100
      4 N5          31.5650   -10.2640    32.0380 nt         1 9U1      -0.644000
      5 N6          28.9390    -9.4950    35.6320 nv         1 9U1      -0.978800
      6 N7          28.3660   -11.3660    34.4450 nv         1 9U1      -0.978800
      7 O4          29.8620   -11.7190    32.2670 o          1 9U1      -0.716100
      8 H2          31.7590   -10.6090    31.1140 hn         1 9U1       0.307000
      9 H3          31.9330    -9.3580    32.2700 hn         1 9U1       0.307000
     10 H4          28.1960    -9.6560    36.2890 hn         1 9U1       0.452800
     11 H5          29.5260    -8.6910    35.7630 hn         1 9U1       0.452800
     12 H6          27.5610   -11.4980    35.0310 hn         1 9U1       0.452800
     13 H1          28.4880   -11.9300    33.6180 hn         1 9U1       0.452800
@<TRIPOS>BOND
     1     1     3 2   
     2     1     5 1   
     3     1     6 1   
     4     2     3 1   
     5     2     4 1   
     6     2     7 2   
     7     4     8 1   
     8     4     9 1   
     9     5    10 1   
    10     5    11 1   
    11     6    12 1   
    12     6    13 1   
@<TRIPOS>SUBSTRUCTURE
     1 9U1         1 TEMP              0 ****  ****    0 ROOT
