@<TRIPOS>MOLECULE
9U1
   13    12     1     0     0
SMALL
No Charge or Current Charge


@<TRIPOS>ATOM
      1 C1          28.8340   -10.6420    34.2070 c2         1 9U1       0.945100
      2 C3          30.0740   -10.3010    32.4370 c          1 9U1       0.761500
      3 N2          29.8870   -10.1700    33.7750 ne         1 9U1      -0.878100
      4 N5          31.3340    -9.9580    32.2070 nt         1 9U1      -0.577000
      5 N6          28.5300    -9.8600    35.1460 nv         1 9U1      -1.089200
      6 N7          29.0550   -11.5090    35.1230 nv         1 9U1      -1.089200
      7 O4          29.2830   -10.6460    31.5830 o          1 9U1      -0.716100
      8 H2          31.6950    -9.9770    31.2680 hn         1 9U1       0.307000
      9 H3          31.9040    -9.6850    32.9900 hn         1 9U1       0.307000
     10 H4          28.5670    -8.9500    34.7210 hn         1 9U1       0.508000
     11 H5          29.3630    -9.9580    35.6990 hn         1 9U1       0.508000
     12 H6          28.2150   -11.5260    35.6780 hn         1 9U1       0.508000
     13 H1          29.2580   -12.4030    34.7010 hn         1 9U1       0.508000
@<TRIPOS>BOND
     1     1     3 2   
     2     1     5 1   
     3     1     6 1   
     4     2     3 1   
     5     2     4 1   
     6     2     7 2   
     7     4     8 1   
     8     4     9 1   
     9     5    10 1   
    10     5    11 1   
    11     6    12 1   
    12     6    13 1   
@<TRIPOS>SUBSTRUCTURE
     1 9U1         1 TEMP              0 ****  ****    0 ROOT
