@<TRIPOS>MOLECULE
9U2
   19    19     1     0     0
SMALL
No Charge or Current Charge


@<TRIPOS>ATOM
      1 O81         -2.9830     1.6500    -0.0240 o          1 9U2      -0.486100
      2 C81         -1.7630     1.5020    -0.0190 c          1 9U2       0.495400
      3 C82         -1.0580     0.1760    -0.0160 cc         1 9U2       0.171500
      4 C84          0.3250     0.0580    -0.0110 cd         1 9U2      -0.169300
      5 C85          1.4050     1.1280    -0.0080 c3         1 9U2       0.002600
      6 S81          0.7940    -1.6400    -0.0090 ss         1 9U2      -0.032400
      7 C83         -0.9130    -2.0520    -0.0140 cd         1 9U2       0.411300
      8 N81         -1.7500    -1.0230    -0.0180 nc         1 9U2      -0.580000
      9 CM8          2.2680     1.0520     1.2700 c3         1 9U2      -0.089100
     10 CM9          2.2710     1.0550    -1.2840 c3         1 9U2      -0.089100
     11 H1          -1.1110     2.4000    -0.0180 h4         1 9U2      -0.006800
     12 H85          0.9540     2.1250    -0.0070 hc         1 9U2       0.059700
     13 H83         -1.2120    -3.0920    -0.0150 h5         1 9U2       0.057100
     14 H882         1.6370     1.1240     2.1650 hc         1 9U2       0.042700
     15 H883         2.8250     0.1080     1.3180 hc         1 9U2       0.042700
     16 H881         2.9910     1.8750     1.2980 hc         1 9U2       0.042700
     17 H992         1.6430     1.1300    -2.1800 hc         1 9U2       0.042700
     18 H993         2.9960     1.8780    -1.3070 hc         1 9U2       0.042700
     19 H991         2.8280     0.1110    -1.3330 hc         1 9U2       0.042700
@<TRIPOS>BOND
     1     1     2 2   
     2     2     3 1   
     3     2    11 1   
     4     3     4 2   
     5     3     8 1   
     6     4     5 1   
     7     4     6 1   
     8     5     9 1   
     9     5    10 1   
    10     5    12 1   
    11     6     7 1   
    12     7     8 2   
    13     7    13 1   
    14     9    14 1   
    15     9    15 1   
    16     9    16 1   
    17    10    17 1   
    18    10    18 1   
    19    10    19 1   
@<TRIPOS>SUBSTRUCTURE
     1 9U2         1 TEMP              0 ****  ****    0 ROOT
