@<TRIPOS>MOLECULE
9U2
   19    19     1     0     0
SMALL
abcg2


@<TRIPOS>ATOM
      1 O81         -2.9600     1.5410    -0.0220 o          1 9U2      -0.486100
      2 C81         -1.7530     1.4640    -0.0190 c          1 9U2       0.495400
      3 C82         -1.0260     0.1950    -0.0150 cc         1 9U2       0.171500
      4 C84          0.3430     0.0810    -0.0120 cd         1 9U2      -0.169300
      5 C85          1.4090     1.1320    -0.0090 c3         1 9U2       0.002600
      6 S81          0.7500    -1.5880    -0.0120 ss         1 9U2      -0.032400
      7 C83         -0.9280    -1.9900    -0.0130 cd         1 9U2       0.411300
      8 N81         -1.7260    -0.9840    -0.0140 nc         1 9U2      -0.580000
      9 CM8          2.2660     1.0440     1.2550 c3         1 9U2      -0.089100
     10 CM9          2.2720     1.0480    -1.2690 c3         1 9U2      -0.089100
     11 H1          -1.1280     2.3710    -0.0210 h4         1 9U2      -0.006800
     12 H85          0.9110     2.1040    -0.0090 hc         1 9U2       0.059700
     13 H83         -1.2460    -3.0240    -0.0120 h5         1 9U2       0.057100
     14 H882         1.6570     1.0920     2.1570 hc         1 9U2       0.042700
     15 H883         2.8380     0.1140     1.2800 hc         1 9U2       0.042700
     16 H881         2.9750     1.8710     1.2800 hc         1 9U2       0.042700
     17 H992         1.6670     1.1050    -2.1730 hc         1 9U2       0.042700
     18 H993         2.9850     1.8730    -1.2840 hc         1 9U2       0.042700
     19 H991         2.8410     0.1170    -1.2990 hc         1 9U2       0.042700
@<TRIPOS>BOND
     1     1     2 2   
     2     2     3 1   
     3     2    11 1   
     4     3     4 2   
     5     3     8 1   
     6     4     5 1   
     7     4     6 1   
     8     5     9 1   
     9     5    10 1   
    10     5    12 1   
    11     6     7 1   
    12     7     8 2   
    13     7    13 1   
    14     9    14 1   
    15     9    15 1   
    16     9    16 1   
    17    10    17 1   
    18    10    18 1   
    19    10    19 1   
@<TRIPOS>SUBSTRUCTURE
     1 9U2         1 TEMP              0 ****  ****    0 ROOT
