@<TRIPOS>MOLECULE
9U3
   24    23     1     0     0
SMALL
bcc


@<TRIPOS>ATOM
      1 C2           2.1780    -1.0490    -0.8660 c3         1 9U3       0.149100
      2 C5          -0.5990    -0.4530     0.1310 c3         1 9U3       0.160800
      3 C7          -2.1610     1.0680    -0.8970 c3         1 9U3       0.149100
      4 C1           2.9420     0.6960     0.5600 c3         1 9U3       0.149100
      5 N1           1.8650    -0.2320     0.2890 n3         1 9U3      -0.712100
      6 C4           0.6070     0.4800     0.1360 c3         1 9U3       0.160800
      7 N6          -1.8590     0.2590     0.2660 n3         1 9U3      -0.712100
      8 C8          -2.9390    -0.6660     0.5340 c3         1 9U3       0.149100
      9 H1           3.1450    -1.5320    -0.7230 h1         1 9U3       0.029700
     10 H2           1.4390    -1.8380    -1.0020 h1         1 9U3       0.029700
     11 H3           2.2290    -0.4700    -1.8020 h1         1 9U3       0.029700
     12 H4          -0.6020    -1.0840    -0.7730 h1         1 9U3       0.037200
     13 H5          -0.4980    -1.1290     0.9850 h1         1 9U3       0.037200
     14 H6          -2.2060     0.4810    -1.8290 h1         1 9U3       0.029700
     15 H7          -3.1280     1.5550    -0.7660 h1         1 9U3       0.029700
     16 H8          -1.4190     1.8540    -1.0340 h1         1 9U3       0.029700
     17 H9           3.1040     1.4250    -0.2500 h1         1 9U3       0.029700
     18 H10          2.7350     1.2560     1.4740 h1         1 9U3       0.029700
     19 H11          3.8760     0.1510     0.7050 h1         1 9U3       0.029700
     20 H13          0.6210     1.1070    -0.7720 h1         1 9U3       0.037200
     21 H14          0.4960     1.1610     0.9850 h1         1 9U3       0.037200
     22 H16         -3.0920    -1.4020    -0.2720 h1         1 9U3       0.029700
     23 H17         -2.7410    -1.2190     1.4540 h1         1 9U3       0.029700
     24 H18         -3.8740    -0.1200     0.6650 h1         1 9U3       0.029700
@<TRIPOS>BOND
     1     1     5 1   
     2     1     9 1   
     3     1    10 1   
     4     1    11 1   
     5     2     6 1   
     6     2     7 1   
     7     2    12 1   
     8     2    13 1   
     9     3     7 1   
    10     3    14 1   
    11     3    15 1   
    12     3    16 1   
    13     4     5 1   
    14     4    17 1   
    15     4    18 1   
    16     4    19 1   
    17     5     6 1   
    18     6    20 1   
    19     6    21 1   
    20     7     8 1   
    21     8    22 1   
    22     8    23 1   
    23     8    24 1   
@<TRIPOS>SUBSTRUCTURE
     1 9U3         1 TEMP              0 ****  ****    0 ROOT
