@<TRIPOS>MOLECULE
9U3
   24    23     1     0     0
SMALL
No Charge or Current Charge


@<TRIPOS>ATOM
      1 C2           2.2280    -1.1260    -0.8360 c3         1 9U3       0.149100
      2 C5          -0.6190    -0.4560     0.1800 c3         1 9U3       0.160800
      3 C7          -2.2100     1.1450    -0.8680 c3         1 9U3       0.149100
      4 C1           3.0540     0.7590     0.5020 c3         1 9U3       0.149100
      5 N1           1.9470    -0.2000     0.2870 n3         1 9U3      -0.712100
      6 C4           0.6260     0.4830     0.1830 c3         1 9U3       0.160800
      7 N6          -1.9410     0.2280     0.2650 n3         1 9U3      -0.712100
      8 C8          -3.0500    -0.7300     0.4750 c3         1 9U3       0.149100
      9 H1           3.2060    -1.6070    -0.7050 h1         1 9U3       0.029700
     10 H2           1.4740    -1.9210    -0.8930 h1         1 9U3       0.029700
     11 H3           2.2360    -0.5880    -1.7940 h1         1 9U3       0.029700
     12 H4          -0.5890    -1.0770    -0.7250 h1         1 9U3       0.037200
     13 H5          -0.5120    -1.1360     1.0360 h1         1 9U3       0.037200
     14 H6          -2.2090     0.6000    -1.8220 h1         1 9U3       0.029700
     15 H7          -3.1890     1.6280    -0.7510 h1         1 9U3       0.029700
     16 H8          -1.4560     1.9400    -0.9230 h1         1 9U3       0.029700
     17 H9           3.1690     1.4250    -0.3640 h1         1 9U3       0.029700
     18 H10          2.8650     1.3780     1.3890 h1         1 9U3       0.029700
     19 H11          4.0030     0.2290     0.6580 h1         1 9U3       0.029700
     20 H13          0.6050     1.0980    -0.7270 h1         1 9U3       0.037200
     21 H14          0.5100     1.1690     1.0330 h1         1 9U3       0.037200
     22 H16         -3.1560    -1.4020    -0.3870 h1         1 9U3       0.029700
     23 H17         -2.8700    -1.3420     1.3690 h1         1 9U3       0.029700
     24 H18         -4.0010    -0.1980     0.6170 h1         1 9U3       0.029700
@<TRIPOS>BOND
     1     1     5 1   
     2     1     9 1   
     3     1    10 1   
     4     1    11 1   
     5     2     6 1   
     6     2     7 1   
     7     2    12 1   
     8     2    13 1   
     9     3     7 1   
    10     3    14 1   
    11     3    15 1   
    12     3    16 1   
    13     4     5 1   
    14     4    17 1   
    15     4    18 1   
    16     4    19 1   
    17     5     6 1   
    18     6    20 1   
    19     6    21 1   
    20     7     8 1   
    21     8    22 1   
    22     8    23 1   
    23     8    24 1   
@<TRIPOS>SUBSTRUCTURE
     1 9U3         1 TEMP              0 ****  ****    0 ROOT
