@<TRIPOS>MOLECULE
9U4
   71    76     1     0     0
SMALL
No Charge or Current Charge


@<TRIPOS>ATOM
      1 C14         -5.6180    -2.1350     1.1670 c6         1 9U4      -0.126400
      2 C6          -3.5290     2.5880    -0.7150 c6         1 9U4       0.102000
      3 C7          -4.0500     1.1430    -0.9400 c6         1 9U4      -0.046100
      4 C8          -3.2440     0.2020    -0.0830 cc         1 9U4      -0.117300
      5 C9          -2.0510     0.5190     0.4810 cd         1 9U4      -0.252300
      6 C10         -1.6320    -0.6200     1.1870 cd         1 9U4       0.507900
      7 C13         -4.6940    -1.8990    -0.0570 c6         1 9U4       0.105300
      8 C3          -1.3300     3.3510    -1.7280 c          1 9U4       0.633100
      9 C1           0.9390     4.0120    -2.5780 c3         1 9U4       0.088300
     10 C15         -6.8330    -3.0010     0.7620 c6         1 9U4       0.154600
     11 C17         -5.6040    -4.0590    -1.0400 c6         1 9U4       0.154600
     12 C18         -4.3250    -3.2510    -0.7260 c6         1 9U4      -0.126400
     13 C20         -0.5540    -1.0910     3.3460 c6         1 9U4       0.241800
     14 C21          0.2990    -0.1120     4.1760 c6         1 9U4      -0.094400
     15 C22          1.7720    -0.1470     3.7180 c6         1 9U4      -0.025100
     16 C23          1.9110    -0.1300     2.1910 ca         1 9U4      -0.121300
     17 C24          0.8170    -0.4380     1.3580 ca         1 9U4       0.338000
     18 C25          1.0220    -0.4550    -0.0330 ca         1 9U4      -0.156000
     19 C26          2.2660    -0.1340    -0.6180 ca         1 9U4      -0.128300
     20 C27          3.3690     0.2110     0.2230 ca         1 9U4       0.018000
     21 C28          3.1570     0.1870     1.6230 ca         1 9U4      -0.082000
     22 C29          4.7170     0.5970    -0.2650 cc         1 9U4      -0.159000
     23 C30          5.2070     1.0270    -1.5170 cc         1 9U4       0.266900
     24 C33          5.8270     0.4630     0.5260 cd         1 9U4      -0.159000
     25 C35          2.3190    -0.2450    -2.1450 c3         1 9U4       0.227600
     26 C38         -1.3870     1.8730     0.3710 c6         1 9U4       0.183300
     27 F36          2.3300     0.9670    -2.7440 f          1 9U4      -0.124000
     28 F37          3.3890    -0.9440    -2.5870 f          1 9U4      -0.124000
     29 N11         -2.4780    -1.6220     1.1290 nc         1 9U4      -0.548800
     30 N12         -3.4880    -1.1160     0.3180 na         1 9U4       0.144800
     31 N19         -0.4550    -0.7430     1.9090 nh         1 9U4      -0.804100
     32 N31          6.5120     1.2050    -1.5590 nd         1 9U4      -0.528800
     33 N32          6.9010     0.8530    -0.2780 na         1 9U4       0.132800
     34 N5          -2.0350     2.6500    -0.7300 n          1 9U4      -0.407800
     35 O16         -6.3780    -4.2350     0.1670 os         1 9U4      -0.444000
     36 O4          -1.9000     3.9420    -2.6330 o          1 9U4      -0.643100
     37 H1          -5.0640    -2.6380     1.9710 hc         1 9U4       0.069450
     38 H2          -5.9620    -1.1740     1.5720 hc         1 9U4       0.069450
     39 H3          -3.9640     3.2570    -1.4700 h1         1 9U4       0.066200
     40 H4          -3.8800     2.9440     0.2640 h1         1 9U4       0.066200
     41 H5          -5.1220     1.0950    -0.7030 hc         1 9U4       0.068700
     42 H6          -3.9440     0.8760    -1.9990 hc         1 9U4       0.068700
     43 H7          -5.2600    -1.3130    -0.7940 h1         1 9U4       0.059700
     44 H8           0.4470     2.8420    -0.8570 hn         1 9U4       0.311500
     45 H9           0.7180     5.0870    -2.6040 h1         1 9U4       0.042700
     46 H10          1.9790     3.8640    -2.2610 h1         1 9U4       0.042700
     47 H11          0.8020     3.5850    -3.5800 h1         1 9U4       0.042700
     48 H12         -7.4420    -3.2330     1.6470 h1         1 9U4       0.047950
     49 H13         -7.4670    -2.4610     0.0420 h1         1 9U4       0.047950
     50 H14         -6.2140    -3.5370    -1.7920 h1         1 9U4       0.047950
     51 H15         -5.3370    -5.0470    -1.4410 h1         1 9U4       0.047950
     52 H16         -3.7580    -3.0740    -1.6500 hc         1 9U4       0.069450
     53 H17         -3.6770    -3.8430    -0.0650 hc         1 9U4       0.069450
     54 H18         -0.2090    -2.1220     3.5120 h1         1 9U4       0.052200
     55 H19         -1.5970    -1.0330     3.6930 h1         1 9U4       0.052200
     56 H20         -0.1010     0.9040     4.0600 hc         1 9U4       0.053200
     57 H21          0.2280    -0.3590     5.2440 hc         1 9U4       0.053200
     58 H22          2.3130     0.7010     4.1610 hc         1 9U4       0.051200
     59 H23          2.2510    -1.0560     4.1060 hc         1 9U4       0.051200
     60 H24          0.1940    -0.7310    -0.6800 ha         1 9U4       0.128000
     61 H25          3.9620     0.4490     2.3020 ha         1 9U4       0.112000
     62 H26          4.6540     1.2440    -2.4170 h4         1 9U4       0.046100
     63 H27          5.9610     0.1180     1.5440 h4         1 9U4       0.152000
     64 H28          8.8730     0.1330    -0.4470 h1         1 9U4       0.055700
     65 H29          8.7310     1.8830    -0.1010 h1         1 9U4       0.055700
     66 H30          8.4080     0.6870     1.1890 h1         1 9U4       0.055700
     67 H31          1.4270    -0.7720    -2.5010 h2         1 9U4       0.062700
     68 H32         -1.5040     2.4230     1.3160 h1         1 9U4       0.062200
     69 H33         -0.3120     1.7500     0.2010 h1         1 9U4       0.062200
     70 C34          8.3160     0.8920     0.1160 c3         1 9U4       0.074900
     71 N2           0.0410     3.3460    -1.6320 ns         1 9U4      -0.499900
@<TRIPOS>BOND
     1     1     7 1   
     2     1    10 1   
     3     1    37 1   
     4     1    38 1   
     5     2     3 1   
     6     2    34 1   
     7     2    39 1   
     8     2    40 1   
     9     3     4 1   
    10     3    41 1   
    11     3    42 1   
    12     4     5 2   
    13     4    30 1   
    14     5     6 1   
    15     5    26 1   
    16     6    29 2   
    17     6    31 1   
    18     7    12 1   
    19     7    30 1   
    20     7    43 1   
    21     8    34 1   
    22     8    36 2   
    23     8    71 1   
    24     9    45 1   
    25     9    46 1   
    26     9    47 1   
    27     9    71 1   
    28    10    35 1   
    29    10    48 1   
    30    10    49 1   
    31    11    12 1   
    32    11    35 1   
    33    11    50 1   
    34    11    51 1   
    35    12    52 1   
    36    12    53 1   
    37    13    14 1   
    38    13    31 1   
    39    13    54 1   
    40    13    55 1   
    41    14    15 1   
    42    14    56 1   
    43    14    57 1   
    44    15    16 1   
    45    15    58 1   
    46    15    59 1   
    47    16    17 ar  
    48    16    21 ar  
    49    17    18 ar  
    50    17    31 1   
    51    18    19 ar  
    52    18    60 1   
    53    19    20 ar  
    54    19    25 1   
    55    20    21 ar  
    56    20    22 1   
    57    21    61 1   
    58    22    23 1   
    59    22    24 2   
    60    23    32 2   
    61    23    62 1   
    62    24    33 1   
    63    24    63 1   
    64    25    27 1   
    65    25    28 1   
    66    25    67 1   
    67    26    34 1   
    68    26    68 1   
    69    26    69 1   
    70    29    30 1   
    71    32    33 1   
    72    33    70 1   
    73    44    71 1   
    74    64    70 1   
    75    65    70 1   
    76    66    70 1   
@<TRIPOS>SUBSTRUCTURE
     1 9U4         1 TEMP              0 ****  ****    0 ROOT
