@<TRIPOS>MOLECULE
9U4
   71    76     1     0     0
SMALL
bcc


@<TRIPOS>ATOM
      1 C14         -5.3500    -2.0370     1.2440 c6         1 9U4      -0.126400
      2 C6          -3.6880     2.6380    -0.6800 c6         1 9U4       0.102000
      3 C7          -4.1320     1.1960    -0.9310 c6         1 9U4      -0.046100
      4 C8          -3.2080     0.3210    -0.1600 cc         1 9U4      -0.066600
      5 C9          -2.0060     0.7260     0.3740 cd         1 9U4      -0.317600
      6 C10         -1.5410    -0.4080     1.0720 cd         1 9U4       0.573200
      7 C13         -4.5550    -1.7930    -0.0340 c6         1 9U4       0.076000
      8 C3          -1.7780     3.0000    -2.1080 c          1 9U4       0.767100
      9 C1           0.1130     3.4520    -3.5530 c3         1 9U4       0.088300
     10 C15         -6.5330    -2.9450     0.9420 c6         1 9U4       0.131400
     11 C17         -5.4400    -3.9630    -0.8580 c6         1 9U4       0.131400
     12 C18         -4.1830    -3.1240    -0.6750 c6         1 9U4      -0.126400
     13 C20         -0.5750    -1.1600     3.1850 c6         1 9U4       0.241800
     14 C21          0.3140    -0.4700     4.2020 c6         1 9U4      -0.094400
     15 C22          1.7670    -0.5840     3.7730 c6         1 9U4      -0.025100
     16 C23          1.9460    -0.2380     2.3190 ca         1 9U4      -0.121300
     17 C24          0.8590    -0.2410     1.4280 ca         1 9U4       0.199600
     18 C25          1.1190     0.0380     0.0830 ca         1 9U4      -0.174000
     19 C26          2.3900     0.3540    -0.3740 ca         1 9U4      -0.128300
     20 C27          3.4780     0.3880     0.5060 ca         1 9U4       0.018000
     21 C28          3.2070     0.0780     1.8370 ca         1 9U4      -0.100000
     22 C29          4.8650     0.6820     0.1280 cc         1 9U4      -0.224300
     23 C30          5.4260     1.7580    -0.5890 cc         1 9U4       0.332200
     24 C33          5.9700    -0.0590     0.5050 cd         1 9U4      -0.126300
     25 C35          2.5060     0.6350    -1.8370 c3         1 9U4       0.470200
     26 C38         -1.4840     2.1200     0.2060 c6         1 9U4       0.183300
     27 F36          2.7670     1.9630    -2.0540 f          1 9U4      -0.245300
     28 F37          3.5350    -0.0490    -2.4060 f          1 9U4      -0.245300
     29 N11         -2.3860    -1.4170     0.9540 nc         1 9U4      -0.548800
     30 N12         -3.3940    -0.9590     0.2100 na         1 9U4       0.123400
     31 N19         -0.4140    -0.5360     1.8790 nh         1 9U4      -0.665700
     32 N31          6.7420     1.6740    -0.6420 nd         1 9U4      -0.528800
     33 N32          7.0550     0.5670     0.0220 na         1 9U4       0.111400
     34 N5          -2.2510     2.7930    -0.8350 n          1 9U4      -0.474800
     35 O16         -6.1250    -4.1640     0.3590 os         1 9U4      -0.397600
     36 O4          -2.5370     3.1280    -3.0630 o          1 9U4      -0.643100
     37 H1          -4.7050    -2.5020     1.9940 hc         1 9U4       0.069450
     38 H2          -5.7120    -1.0930     1.6580 hc         1 9U4       0.069450
     39 H3          -4.2100     3.3250    -1.3410 h1         1 9U4       0.066200
     40 H4          -3.9390     2.9220     0.3450 h1         1 9U4       0.066200
     41 H5          -5.1700     1.0690    -0.6130 hc         1 9U4       0.068700
     42 H6          -4.0960     0.9670    -1.9990 hc         1 9U4       0.068700
     43 H7          -5.1840    -1.2360    -0.7340 h1         1 9U4       0.059700
     44 H8           0.1420     3.3080    -1.4700 hn         1 9U4       0.311500
     45 H9          -0.1780     4.4580    -3.8620 h1         1 9U4       0.042700
     46 H10          1.1960     3.4140    -3.4890 h1         1 9U4       0.042700
     47 H11         -0.2020     2.7530    -4.3250 h1         1 9U4       0.042700
     48 H12         -7.0700    -3.1910     1.8590 h1         1 9U4       0.047950
     49 H13         -7.2360    -2.4220     0.2770 h1         1 9U4       0.047950
     50 H14         -6.1010    -3.4760    -1.5910 h1         1 9U4       0.047950
     51 H15         -5.1850    -4.9490    -1.2500 h1         1 9U4       0.047950
     52 H16         -3.7090    -2.9650    -1.6460 hc         1 9U4       0.069450
     53 H17         -3.4700    -3.6540    -0.0390 hc         1 9U4       0.069450
     54 H18         -0.3340    -2.2280     3.1390 h1         1 9U4       0.052200
     55 H19         -1.6220    -1.0780     3.4700 h1         1 9U4       0.052200
     56 H20          0.0190     0.5780     4.2890 hc         1 9U4       0.053200
     57 H21          0.1700    -0.9290     5.1820 hc         1 9U4       0.053200
     58 H22          2.4040     0.0560     4.3860 hc         1 9U4       0.051200
     59 H23          2.1140    -1.6090     3.9400 hc         1 9U4       0.051200
     60 H24          0.3120    -0.0200    -0.6370 ha         1 9U4       0.146000
     61 H25          4.0260     0.0990     2.5470 ha         1 9U4       0.130000
     62 H26          4.9230     2.5970    -1.0420 h4         1 9U4       0.046100
     63 H27          6.0430    -0.9770     1.0650 h4         1 9U4       0.170000
     64 H28          8.8280    -0.1240    -0.8450 h1         1 9U4       0.055700
     65 H29          9.0340     0.9510     0.5510 h1         1 9U4       0.055700
     66 H30          8.4860    -0.7150     0.7880 h1         1 9U4       0.055700
     67 H31          1.5920     0.3880    -2.3810 h2         1 9U4       0.062700
     68 H32         -1.5690     2.6840     1.1400 h1         1 9U4       0.062200
     69 H33         -0.4240     2.1080    -0.0380 h1         1 9U4       0.062200
     70 C34          8.4310     0.1490     0.1320 c3         1 9U4       0.045600
     71 N2          -0.4290     3.0780    -2.2660 ns         1 9U4      -0.566900
@<TRIPOS>BOND
     1     1     7 1   
     2     1    10 1   
     3     1    37 1   
     4     1    38 1   
     5     2     3 1   
     6     2    34 1   
     7     2    39 1   
     8     2    40 1   
     9     3     4 1   
    10     3    41 1   
    11     3    42 1   
    12     4     5 2   
    13     4    30 1   
    14     5     6 1   
    15     5    26 1   
    16     6    29 2   
    17     6    31 1   
    18     7    12 1   
    19     7    30 1   
    20     7    43 1   
    21     8    34 1   
    22     8    36 2   
    23     8    71 1   
    24     9    45 1   
    25     9    46 1   
    26     9    47 1   
    27     9    71 1   
    28    10    35 1   
    29    10    48 1   
    30    10    49 1   
    31    11    12 1   
    32    11    35 1   
    33    11    50 1   
    34    11    51 1   
    35    12    52 1   
    36    12    53 1   
    37    13    14 1   
    38    13    31 1   
    39    13    54 1   
    40    13    55 1   
    41    14    15 1   
    42    14    56 1   
    43    14    57 1   
    44    15    16 1   
    45    15    58 1   
    46    15    59 1   
    47    16    17 ar  
    48    16    21 ar  
    49    17    18 ar  
    50    17    31 1   
    51    18    19 ar  
    52    18    60 1   
    53    19    20 ar  
    54    19    25 1   
    55    20    21 ar  
    56    20    22 1   
    57    21    61 1   
    58    22    23 1   
    59    22    24 2   
    60    23    32 2   
    61    23    62 1   
    62    24    33 1   
    63    24    63 1   
    64    25    27 1   
    65    25    28 1   
    66    25    67 1   
    67    26    34 1   
    68    26    68 1   
    69    26    69 1   
    70    29    30 1   
    71    32    33 1   
    72    33    70 1   
    73    44    71 1   
    74    64    70 1   
    75    65    70 1   
    76    66    70 1   
@<TRIPOS>SUBSTRUCTURE
     1 9U4         1 TEMP              0 ****  ****    0 ROOT
