@<TRIPOS>MOLECULE
9U5
   48    50     1     0     0
SMALL
abcg2


@<TRIPOS>ATOM
      1 C4          -1.3450     1.6390    -0.1900 ca         1 9U5      -0.069000
      2 C14         -6.9360     1.4000    -0.9970 c3         1 9U5      -0.108100
      3 C5          -0.6460     0.4340    -0.0950 ca         1 9U5       0.032000
      4 C6          -1.3830    -0.7530    -0.0350 ca         1 9U5      -0.065000
      5 C7          -3.5330    -2.0840    -0.1230 c6         1 9U5       0.058500
      6 C8          -4.8780    -1.8510     0.5090 c2         1 9U5      -0.298200
      7 C9          -5.4680    -0.6610     0.4370 c2         1 9U5       0.007000
      8 C10         -3.7310    -2.4760    -1.5990 c3         1 9U5      -0.078100
      9 C13         -5.8450     2.4120     1.0450 c3         1 9U5      -0.108100
     10 N1          -4.8420     0.4550    -0.0980 nh         1 9U5      -0.692200
     11 C3          -2.7240     1.6480    -0.2010 ca         1 9U5      -0.179000
     12 C1          -2.7650    -0.7720    -0.0680 ca         1 9U5      -0.118300
     13 C2          -3.4610     0.4560    -0.1370 ca         1 9U5       0.306000
     14 C15          0.7730     0.4000    -0.0540 cg         1 9U5      -0.196000
     15 C16          1.9800     0.3470    -0.0030 ch         1 9U5      -0.032000
     16 C17          3.3970     0.2600     0.0700 ca         1 9U5      -0.037000
     17 C18          4.0130    -0.9570     0.3840 ca         1 9U5      -0.109000
     18 C19          5.3920    -1.0420     0.4620 ca         1 9U5      -0.097000
     19 C20          6.1980     0.0710     0.2340 ca         1 9U5      -0.111600
     20 C21          5.5800     1.2800    -0.0800 ca         1 9U5      -0.097000
     21 C22          4.2020     1.3810    -0.1630 ca         1 9U5      -0.109000
     22 C23          7.7160    -0.0320     0.3280 c          1 9U5       0.711600
     23 O1           8.1820    -1.1580     0.5840 o          1 9U5      -0.716500
     24 O2           8.3570     1.0200     0.1410 o          1 9U5      -0.716500
     25 H1          -0.8060     2.5760    -0.2340 ha         1 9U5       0.117000
     26 H2          -7.4020     2.3460    -1.2730 hc         1 9U5       0.040700
     27 H3          -6.7660     0.8310    -1.9110 hc         1 9U5       0.040700
     28 H4          -7.6520     0.8560    -0.3800 hc         1 9U5       0.040700
     29 H5          -0.8370    -1.6850     0.0210 ha         1 9U5       0.120000
     30 H6          -1.8940    -3.5220     0.1020 hc         1 9U5       0.033867
     31 H7          -2.5710    -2.9530     1.6320 hc         1 9U5       0.033867
     32 H8          -3.4600    -4.1030     0.6340 hc         1 9U5       0.033867
     33 H9          -5.3960    -2.6780     0.9780 ha         1 9U5       0.181000
     34 H10         -6.4660    -0.5010     0.8240 h4         1 9U5       0.180000
     35 H11         -4.3390    -3.3790    -1.6770 hc         1 9U5       0.033867
     36 H12         -4.2370    -1.6830    -2.1530 hc         1 9U5       0.033867
     37 H13         -2.7710    -2.6690    -2.0830 hc         1 9U5       0.033867
     38 H14         -5.0460     2.3230    -0.9410 h1         1 9U5       0.062700
     39 H15         -4.8990     2.6630     1.5270 hc         1 9U5       0.040700
     40 H16         -6.3910     3.3410     0.8780 hc         1 9U5       0.040700
     41 H17         -6.4260     1.8030     1.7400 hc         1 9U5       0.040700
     42 H18         -3.2240     2.6060    -0.2350 ha         1 9U5       0.105000
     43 H19          3.4030    -1.8310     0.5700 ha         1 9U5       0.093000
     44 H20          5.8530    -1.9890     0.7090 ha         1 9U5       0.130000
     45 H21          6.1890     2.1560    -0.2630 ha         1 9U5       0.130000
     46 H22          3.7410     2.3280    -0.4110 ha         1 9U5       0.093000
     47 C11         -2.8150    -3.2230     0.6040 c3         1 9U5      -0.078100
     48 C12         -5.6230     1.6810    -0.2750 c3         1 9U5       0.239500
@<TRIPOS>BOND
     1     1     3 ar  
     2     1    11 ar  
     3     1    25 1   
     4     2    26 1   
     5     2    27 1   
     6     2    28 1   
     7     2    48 1   
     8     3     4 ar  
     9     3    14 1   
    10     4    12 ar  
    11     4    29 1   
    12     5     6 1   
    13     5     8 1   
    14     5    12 1   
    15     5    47 1   
    16     6     7 2   
    17     6    33 1   
    18     7    10 1   
    19     7    34 1   
    20     8    35 1   
    21     8    36 1   
    22     8    37 1   
    23     9    39 1   
    24     9    40 1   
    25     9    41 1   
    26     9    48 1   
    27    10    13 1   
    28    10    48 1   
    29    11    13 ar  
    30    11    42 1   
    31    12    13 ar  
    32    14    15 3   
    33    15    16 1   
    34    16    17 ar  
    35    16    21 ar  
    36    17    18 ar  
    37    17    43 1   
    38    18    19 ar  
    39    18    44 1   
    40    19    20 ar  
    41    19    22 1   
    42    20    21 ar  
    43    20    45 1   
    44    21    46 1   
    45    22    23 1   
    46    22    24 1   
    47    30    47 1   
    48    31    47 1   
    49    32    47 1   
    50    38    48 1   
@<TRIPOS>SUBSTRUCTURE
     1 9U5         1 TEMP              0 ****  ****    0 ROOT
