@<TRIPOS>MOLECULE
9U5
   48    50     1     0     0
SMALL
No Charge or Current Charge


@<TRIPOS>ATOM
      1 C4          -1.2850     1.6290     0.3490 ca         1 9U5      -0.069000
      2 C14         -6.5600     1.2960    -1.4820 c3         1 9U5      -0.108100
      3 C5          -0.6230     0.4040     0.1890 ca         1 9U5       0.032000
      4 C6          -1.3680    -0.7820     0.0790 ca         1 9U5      -0.065000
      5 C7          -3.6040    -2.0560     0.0330 c6         1 9U5       0.058500
      6 C8          -5.0310    -1.8230     0.5110 c2         1 9U5      -0.298200
      7 C9          -5.5840    -0.6090     0.6100 c2         1 9U5       0.007000
      8 C10         -3.6540    -2.5400    -1.4420 c3         1 9U5      -0.078100
      9 C13         -6.3070     2.5380     0.7330 c3         1 9U5      -0.108100
     10 N1          -4.8780     0.5320     0.2400 nh         1 9U5      -0.692200
     11 C3          -2.6880     1.6710     0.3760 ca         1 9U5      -0.179000
     12 C1          -2.7810    -0.7540     0.1260 ca         1 9U5      -0.118300
     13 C2          -3.4530     0.4910     0.2410 ca         1 9U5       0.306000
     14 C15          0.8100     0.3600     0.1470 cg         1 9U5      -0.196000
     15 C16          2.0280     0.3090     0.1090 ch         1 9U5      -0.032000
     16 C17          3.4510     0.2320     0.0630 ca         1 9U5      -0.037000
     17 C18          4.0880    -1.0100    -0.0980 ca         1 9U5      -0.109000
     18 C19          5.4910    -1.0870    -0.1440 ca         1 9U5      -0.097000
     19 C20          6.2850     0.0790    -0.0290 ca         1 9U5      -0.111600
     20 C21          5.6300     1.3240     0.1330 ca         1 9U5      -0.097000
     21 C22          4.2270     1.3980     0.1790 ca         1 9U5      -0.109000
     22 C23          7.8040    -0.0030    -0.0780 c          1 9U5       0.711600
     23 O1           8.3280    -1.1000    -0.2200 o          1 9U5      -0.716500
     24 O2           8.4510     1.0300     0.0250 o          1 9U5      -0.716500
     25 H1          -0.7150     2.5500     0.4500 ha         1 9U5       0.117000
     26 H2          -6.9820     2.1880    -1.9600 hc         1 9U5       0.040700
     27 H3          -6.0310     0.7190    -2.2500 hc         1 9U5       0.040700
     28 H4          -7.3900     0.6880    -1.1030 hc         1 9U5       0.040700
     29 H5          -0.8390    -1.7220    -0.0460 ha         1 9U5       0.120000
     30 H6          -2.0120    -3.5180     0.5490 hc         1 9U5       0.033867
     31 H7          -2.8800    -2.8710     1.9500 hc         1 9U5       0.033867
     32 H8          -3.6360    -4.0850     0.9100 hc         1 9U5       0.033867
     33 H9          -5.6130    -2.7070     0.7760 ha         1 9U5       0.181000
     34 H10         -6.6170    -0.4590     0.9360 h4         1 9U5       0.180000
     35 H11         -4.2470    -3.4570    -1.5450 hc         1 9U5       0.033867
     36 H12         -4.1080    -1.7790    -2.0890 hc         1 9U5       0.033867
     37 H13         -2.6500    -2.7470    -1.8300 hc         1 9U5       0.033867
     38 H14         -4.8600     2.3650    -0.8220 h1         1 9U5       0.062700
     39 H15         -5.5950     2.8650     1.5000 hc         1 9U5       0.040700
     40 H16         -6.7610     3.4310     0.2890 hc         1 9U5       0.040700
     41 H17         -7.0980     1.9580     1.2230 hc         1 9U5       0.040700
     42 H18         -3.1740     2.6320     0.5140 ha         1 9U5       0.105000
     43 H19          3.4980    -1.9200    -0.1890 ha         1 9U5       0.093000
     44 H20          5.9610    -2.0610    -0.2700 ha         1 9U5       0.130000
     45 H21          6.2090     2.2400     0.2250 ha         1 9U5       0.130000
     46 H22          3.7460     2.3660     0.3040 ha         1 9U5       0.093000
     47 C11         -2.9950    -3.1950     0.9090 c3         1 9U5      -0.078100
     48 C12         -5.5920     1.6980    -0.3460 c3         1 9U5       0.239500
@<TRIPOS>BOND
     1     1     3 ar  
     2     1    11 ar  
     3     1    25 1   
     4     2    26 1   
     5     2    27 1   
     6     2    28 1   
     7     2    48 1   
     8     3     4 ar  
     9     3    14 1   
    10     4    12 ar  
    11     4    29 1   
    12     5     6 1   
    13     5     8 1   
    14     5    12 1   
    15     5    47 1   
    16     6     7 2   
    17     6    33 1   
    18     7    10 1   
    19     7    34 1   
    20     8    35 1   
    21     8    36 1   
    22     8    37 1   
    23     9    39 1   
    24     9    40 1   
    25     9    41 1   
    26     9    48 1   
    27    10    13 1   
    28    10    48 1   
    29    11    13 ar  
    30    11    42 1   
    31    12    13 ar  
    32    14    15 3   
    33    15    16 1   
    34    16    17 ar  
    35    16    21 ar  
    36    17    18 ar  
    37    17    43 1   
    38    18    19 ar  
    39    18    44 1   
    40    19    20 ar  
    41    19    22 1   
    42    20    21 ar  
    43    20    45 1   
    44    21    46 1   
    45    22    23 1   
    46    22    24 1   
    47    30    47 1   
    48    31    47 1   
    49    32    47 1   
    50    38    48 1   
@<TRIPOS>SUBSTRUCTURE
     1 9U5         1 TEMP              0 ****  ****    0 ROOT
