@<TRIPOS>MOLECULE
9U6
   37    37     1     0     0
SMALL
bcc


@<TRIPOS>ATOM
      1 C15          5.4250    -0.0680    -0.1880 ca         1 9U6      -0.094300
      2 C17          7.0980     1.0200    -1.5470 ca         1 9U6      -0.136000
      3 C20          5.7990     0.7330     0.8880 ca         1 9U6      -0.102500
      4 C           -5.3010     1.3360    -0.9230 c          1 9U6       0.934600
      5 CA          -4.6070     0.1180    -0.2580 c3         1 9U6       0.015500
      6 CB          -3.6100     0.6890     0.7620 c3         1 9U6       0.101700
      7 C8          -0.8450    -0.2550     1.3860 c3         1 9U6       0.050700
      8 C9          -0.4710    -0.6200    -0.0450 c3         1 9U6       0.109000
      9 C11          1.9450    -0.9930    -0.0410 c          1 9U6       0.747100
     10 C14          4.3090    -1.0560    -0.0390 c3         1 9U6       0.207700
     11 C16          6.0820     0.0850    -1.4050 ca         1 9U6      -0.102500
     12 C18          7.4650     1.8150    -0.4690 ca         1 9U6      -0.121000
     13 C19          6.8130     1.6700     0.7500 ca         1 9U6      -0.136000
     14 N           -4.0350    -0.7600    -1.2560 n8         1 9U6      -0.876800
     15 N10          0.8840    -0.2310    -0.3650 ns         1 9U6      -0.560900
     16 O12          1.8850    -2.1200     0.4080 o          1 9U6      -0.596000
     17 O13          3.0900    -0.3490    -0.2960 os         1 9U6      -0.441900
     18 SE7         -2.6990    -0.6950     1.8320 ss         1 9U6      -0.543200
     19 H17          7.6040     1.1270    -2.4970 ha         1 9U6       0.129000
     20 H20          5.2980     0.6200     1.8420 ha         1 9U6       0.134000
     21 HA          -5.3710    -0.4390     0.2950 h1         1 9U6       0.062700
     22 HB2         -2.8360     1.2670     0.2490 h1         1 9U6       0.061700
     23 HB3         -4.1220     1.3590     1.4540 h1         1 9U6       0.061700
     24 H6          -0.2230    -0.8090     2.0940 h1         1 9U6       0.059200
     25 H7          -0.6820     0.8090     1.5690 h1         1 9U6       0.059200
     26 H8          -0.5880    -1.6910    -0.2080 h1         1 9U6       0.074700
     27 H9          -1.1280    -0.1140    -0.7530 h1         1 9U6       0.074700
     28 H14          4.4180    -1.8800    -0.7490 h1         1 9U6       0.054200
     29 H15          4.2980    -1.4770     0.9680 h1         1 9U6       0.054200
     30 H16          5.8020    -0.5370    -2.2480 ha         1 9U6       0.134000
     31 H18          8.2590     2.5430    -0.5750 ha         1 9U6       0.126000
     32 H19          7.0980     2.2840     1.5940 ha         1 9U6       0.129000
     33 H           -3.4530    -0.2160    -1.8820 hn         1 9U6       0.327800
     34 H2          -3.4390    -1.4500    -0.8140 hn         1 9U6       0.327800
     35 H10          1.0450     0.7200    -0.6580 hn         1 9U6       0.325500
     36 OXT         -6.1770     1.9030    -0.2420 o          1 9U6      -0.824300
     37 O           -4.8960     1.6700    -2.0520 o          1 9U6      -0.824300
@<TRIPOS>BOND
     1     1     3 ar  
     2     1    10 1   
     3     1    11 ar  
     4     2    11 ar  
     5     2    12 ar  
     6     2    19 1   
     7     3    13 ar  
     8     3    20 1   
     9     4     5 1   
    10     4    36 1   
    11     4    37 1   
    12     5     6 1   
    13     5    14 1   
    14     5    21 1   
    15     6    18 1   
    16     6    22 1   
    17     6    23 1   
    18     7     8 1   
    19     7    18 1   
    20     7    24 1   
    21     7    25 1   
    22     8    15 1   
    23     8    26 1   
    24     8    27 1   
    25     9    15 1   
    26     9    16 2   
    27     9    17 1   
    28    10    17 1   
    29    10    28 1   
    30    10    29 1   
    31    11    30 1   
    32    12    13 ar  
    33    12    31 1   
    34    13    32 1   
    35    14    33 1   
    36    14    34 1   
    37    15    35 1   
@<TRIPOS>SUBSTRUCTURE
     1 9U6         1 TEMP              0 ****  ****    0 ROOT
