@<TRIPOS>MOLECULE
9U7
   63    68     1     0     0
SMALL
No Charge or Current Charge


@<TRIPOS>ATOM
      1 C7           3.0670     0.3130     0.4700 cc         1 9U7      -0.138300
      2 C9           1.5250    -0.6490    -0.7920 cd         1 9U7       0.516900
      3 C2           1.0220     3.5660     1.7560 c          1 9U7       0.607100
      4 C6           3.8310     1.3440     1.2570 c6         1 9U7      -0.034100
      5 C1           1.7240     4.4220     2.8120 c3         1 9U7      -0.178100
      6 C12          4.5720    -1.7550     0.5660 c5         1 9U7       0.065300
      7 C14          4.3090    -3.1660     1.1940 c5         1 9U7      -0.126400
      8 C15          4.7420    -4.1180     0.0580 c5         1 9U7       0.160600
      9 C17          5.5500    -2.0730    -0.6110 c5         1 9U7       0.157600
     10 C19          0.5820    -1.2930    -2.9680 c6         1 9U7       0.243800
     11 C20         -0.3080    -0.4520    -3.9030 c6         1 9U7      -0.094400
     12 C21         -1.7920    -0.5820    -3.5050 c6         1 9U7      -0.022100
     13 C22         -2.0030    -0.4620    -1.9920 ca         1 9U7      -0.137300
     14 C23         -0.9230    -0.6110    -1.0880 ca         1 9U7       0.334000
     15 C24         -1.1870    -0.5430     0.2940 ca         1 9U7      -0.168000
     16 C25         -2.4850    -0.3020     0.7720 ca         1 9U7      -0.068000
     17 C26         -3.5620    -0.1350    -0.1230 ca         1 9U7      -0.026000
     18 C27         -3.3040    -0.2260    -1.5060 ca         1 9U7      -0.071000
     19 C28         -4.9310     0.1170     0.3480 cc         1 9U7      -0.139000
     20 C29         -6.1210     0.3020    -0.3760 cc         1 9U7       0.246900
     21 C32         -5.2640     0.2180     1.6680 cd         1 9U7      -0.163000
     22 C34          1.1610     1.8800    -0.1380 c6         1 9U7       0.174300
     23 C5           3.2950     2.7460     0.8660 c6         1 9U7       0.107000
     24 C8           1.8760     0.5460    -0.1400 cd         1 9U7      -0.226300
     25 N10          2.4110    -1.6100    -0.6530 nc         1 9U7      -0.538800
     26 N11          3.3700    -1.0120     0.1530 na         1 9U7       0.139800
     27 N18          0.3920    -0.8550    -1.5650 nh         1 9U7      -0.810100
     28 N30         -7.1790     0.5110     0.3810 nd         1 9U7      -0.530800
     29 N31         -6.6430     0.4590     1.6620 na         1 9U7       0.130800
     30 N4           1.7970     2.7860     0.8680 n          1 9U7      -0.413800
     31 O16          5.9110    -3.4600    -0.4500 os         1 9U7      -0.451000
     32 O3          -0.2000     3.5640     1.6910 o          1 9U7      -0.596100
     33 H1           3.6920     1.1830     2.3340 hc         1 9U7       0.057700
     34 H2           4.9100     1.2900     1.0600 hc         1 9U7       0.057700
     35 H3           2.3920     5.1320     2.3130 hc         1 9U7       0.059033
     36 H4           1.0160     4.9430     3.4660 hc         1 9U7       0.059033
     37 H5           2.4150     3.7960     3.3880 hc         1 9U7       0.059033
     38 H6           5.1010    -1.1440     1.3080 h1         1 9U7       0.071700
     39 H7           4.9300    -3.3220     2.0830 hc         1 9U7       0.065700
     40 H8           3.2670    -3.3190     1.4960 hc         1 9U7       0.065700
     41 H9           4.9910    -5.1280     0.4110 h1         1 9U7       0.057200
     42 H10          3.9850    -4.1880    -0.7370 h1         1 9U7       0.057200
     43 H11          5.0620    -1.9500    -1.5880 h1         1 9U7       0.054700
     44 H12          6.4520    -1.4470    -0.5930 h1         1 9U7       0.054700
     45 H13          0.3290    -2.3590    -3.0710 h1         1 9U7       0.050200
     46 H14          1.6320    -1.1730    -3.2780 h1         1 9U7       0.050200
     47 H15         -0.0000     0.6010    -3.8450 hc         1 9U7       0.050700
     48 H16         -0.1660    -0.7660    -4.9460 hc         1 9U7       0.050700
     49 H17         -2.3820     0.1790    -4.0340 hc         1 9U7       0.047200
     50 H18         -2.1730    -1.5560    -3.8400 hc         1 9U7       0.047200
     51 H19         -0.3850    -0.6820     1.0120 ha         1 9U7       0.122000
     52 H20         -2.6400    -0.2510     1.8460 ha         1 9U7       0.110000
     53 H21         -4.1180    -0.1160    -2.2170 ha         1 9U7       0.107000
     54 H22         -6.2490     0.2900    -1.4500 h4         1 9U7       0.035100
     55 H23         -4.6820     0.1470     2.5780 h4         1 9U7       0.155000
     56 H24         -7.9700     1.6360     2.8010 h1         1 9U7       0.054700
     57 H25         -8.2760    -0.1270     2.8590 h1         1 9U7       0.054700
     58 H26         -6.8940     0.5710     3.7550 h1         1 9U7       0.054700
     59 H27          1.2230     2.3410    -1.1340 h1         1 9U7       0.077200
     60 H28          0.0960     1.7390     0.0880 h1         1 9U7       0.077200
     61 H29          3.7340     3.5030     1.5280 h1         1 9U7       0.056200
     62 H30          3.6410     2.9830    -0.1500 h1         1 9U7       0.056200
     63 C33         -7.4990     0.6460     2.8430 c3         1 9U7       0.074900
@<TRIPOS>BOND
     1     1     4 1   
     2     1    24 2   
     3     1    26 1   
     4     2    24 1   
     5     2    25 2   
     6     2    27 1   
     7     3     5 1   
     8     3    30 1   
     9     3    32 2   
    10     4    23 1   
    11     4    33 1   
    12     4    34 1   
    13     5    35 1   
    14     5    36 1   
    15     5    37 1   
    16     6     7 1   
    17     6     9 1   
    18     6    26 1   
    19     6    38 1   
    20     7     8 1   
    21     7    39 1   
    22     7    40 1   
    23     8    31 1   
    24     8    41 1   
    25     8    42 1   
    26     9    31 1   
    27     9    43 1   
    28     9    44 1   
    29    10    11 1   
    30    10    27 1   
    31    10    45 1   
    32    10    46 1   
    33    11    12 1   
    34    11    47 1   
    35    11    48 1   
    36    12    13 1   
    37    12    49 1   
    38    12    50 1   
    39    13    14 ar  
    40    13    18 ar  
    41    14    15 ar  
    42    14    27 1   
    43    15    16 ar  
    44    15    51 1   
    45    16    17 ar  
    46    16    52 1   
    47    17    18 ar  
    48    17    19 1   
    49    18    53 1   
    50    19    20 1   
    51    19    21 2   
    52    20    28 2   
    53    20    54 1   
    54    21    29 1   
    55    21    55 1   
    56    22    24 1   
    57    22    30 1   
    58    22    59 1   
    59    22    60 1   
    60    23    30 1   
    61    23    61 1   
    62    23    62 1   
    63    25    26 1   
    64    28    29 1   
    65    29    63 1   
    66    56    63 1   
    67    57    63 1   
    68    58    63 1   
@<TRIPOS>SUBSTRUCTURE
     1 9U7         1 TEMP              0 ****  ****    0 ROOT
