@<TRIPOS>MOLECULE
9U7
   63    68     1     0     0
SMALL
bcc


@<TRIPOS>ATOM
      1 C7           3.1130     0.4640     0.3480 cc         1 9U7      -0.087600
      2 C9           1.5380    -0.4580    -0.8780 cd         1 9U7       0.582200
      3 C2           1.1680     3.2100     2.1190 c          1 9U7       0.674100
      4 C6           3.9100     1.4340     1.1460 c6         1 9U7      -0.034100
      5 C1           1.9660     3.8610     3.2250 c3         1 9U7      -0.178100
      6 C12          4.6480    -1.5150     0.3260 c5         1 9U7       0.036000
      7 C14          4.3790    -2.6930     1.2630 c5         1 9U7      -0.126400
      8 C15          4.0870    -3.8330     0.2990 c5         1 9U7       0.137400
      9 C17          5.2910    -2.2150    -0.8720 c5         1 9U7       0.134400
     10 C19          0.6110    -1.2530    -2.9980 c6         1 9U7       0.243800
     11 C20         -0.3510    -0.5870    -3.9660 c6         1 9U7      -0.094400
     12 C21         -1.7820    -0.8470    -3.5250 c6         1 9U7      -0.022100
     13 C22         -1.9680    -0.6040    -2.0490 ca         1 9U7      -0.137300
     14 C23         -0.8680    -0.5610    -1.1730 ca         1 9U7       0.195600
     15 C24         -1.1170    -0.3810     0.1930 ca         1 9U7      -0.186000
     16 C25         -2.4020    -0.2120     0.6730 ca         1 9U7      -0.086000
     17 C26         -3.5030    -0.2270    -0.1830 ca         1 9U7      -0.026000
     18 C27         -3.2470    -0.4310    -1.5380 ca         1 9U7      -0.089000
     19 C28         -4.8640    -0.0380     0.3130 cc         1 9U7      -0.204300
     20 C29         -6.0840    -0.2980    -0.3460 cc         1 9U7       0.312200
     21 C32         -5.2670     0.4380     1.5480 cd         1 9U7      -0.130300
     22 C34          1.1810     2.0380    -0.0210 c6         1 9U7       0.174300
     23 C5           3.3000     2.8180     0.9090 c6         1 9U7       0.107000
     24 C8           1.8730     0.7240    -0.1880 cd         1 9U7      -0.291600
     25 N10          2.4950    -1.3620    -0.7590 nc         1 9U7      -0.538800
     26 N11          3.4490    -0.7850    -0.0270 na         1 9U7       0.118400
     27 N18          0.4200    -0.7120    -1.6630 nh         1 9U7      -0.671700
     28 N30         -7.1230    -0.0100     0.4150 nd         1 9U7      -0.530800
     29 N31         -6.6110     0.4320     1.5570 na         1 9U7       0.109400
     30 N4           1.8540     2.7870     1.0300 n          1 9U7      -0.480800
     31 O16          4.8290    -3.5520    -0.8780 os         1 9U7      -0.404600
     32 O3          -0.0470     3.0910     2.2080 o          1 9U7      -0.596100
     33 H1           3.8850     1.1820     2.2100 hc         1 9U7       0.057700
     34 H2           4.9600     1.4460     0.8460 hc         1 9U7       0.057700
     35 H3           2.4480     4.7790     2.8860 hc         1 9U7       0.059033
     36 H4           1.2960     4.1090     4.0440 hc         1 9U7       0.059033
     37 H5           2.7470     3.2030     3.6070 hc         1 9U7       0.059033
     38 H6           5.3310    -0.7950     0.7720 h1         1 9U7       0.071700
     39 H7           5.2840    -2.8940     1.8400 hc         1 9U7       0.065700
     40 H8           3.5680    -2.5060     1.9660 hc         1 9U7       0.065700
     41 H9           4.3950    -4.8020     0.6980 h1         1 9U7       0.057200
     42 H10          3.0190    -3.8870     0.0670 h1         1 9U7       0.057200
     43 H11          5.0420    -1.7220    -1.8150 h1         1 9U7       0.054700
     44 H12          6.3800    -2.1930    -0.7590 h1         1 9U7       0.054700
     45 H13          0.4600    -2.3390    -3.0090 h1         1 9U7       0.050200
     46 H14          1.6430    -1.0700    -3.2940 h1         1 9U7       0.050200
     47 H15         -0.1470     0.4860    -3.9950 hc         1 9U7       0.050700
     48 H16         -0.1860    -0.9750    -4.9720 hc         1 9U7       0.050700
     49 H17         -2.4780    -0.2270    -4.0920 hc         1 9U7       0.047200
     50 H18         -2.0470    -1.8850    -3.7530 hc         1 9U7       0.047200
     51 H19         -0.2960    -0.3800     0.8980 ha         1 9U7       0.140000
     52 H20         -2.5410    -0.0850     1.7400 ha         1 9U7       0.128000
     53 H21         -4.0730    -0.4450    -2.2410 ha         1 9U7       0.125000
     54 H22         -6.2370    -0.6970    -1.3380 h4         1 9U7       0.035100
     55 H23         -4.7010     0.7820     2.3990 h4         1 9U7       0.173000
     56 H24         -7.9540     1.8300     2.3480 h1         1 9U7       0.054700
     57 H25         -8.2490     0.1430     2.8080 h1         1 9U7       0.054700
     58 H26         -6.8940     1.0300     3.5180 h1         1 9U7       0.054700
     59 H27          1.2020     2.6160    -0.9520 h1         1 9U7       0.077200
     60 H28          0.1360     1.9120     0.2520 h1         1 9U7       0.077200
     61 H29          3.7290     3.5450     1.5920 h1         1 9U7       0.056200
     62 H30          3.5470     3.1540    -0.1020 h1         1 9U7       0.056200
     63 C33         -7.4800     0.8870     2.6150 c3         1 9U7       0.045600
@<TRIPOS>BOND
     1     1     4 1   
     2     1    24 2   
     3     1    26 1   
     4     2    24 1   
     5     2    25 2   
     6     2    27 1   
     7     3     5 1   
     8     3    30 1   
     9     3    32 2   
    10     4    23 1   
    11     4    33 1   
    12     4    34 1   
    13     5    35 1   
    14     5    36 1   
    15     5    37 1   
    16     6     7 1   
    17     6     9 1   
    18     6    26 1   
    19     6    38 1   
    20     7     8 1   
    21     7    39 1   
    22     7    40 1   
    23     8    31 1   
    24     8    41 1   
    25     8    42 1   
    26     9    31 1   
    27     9    43 1   
    28     9    44 1   
    29    10    11 1   
    30    10    27 1   
    31    10    45 1   
    32    10    46 1   
    33    11    12 1   
    34    11    47 1   
    35    11    48 1   
    36    12    13 1   
    37    12    49 1   
    38    12    50 1   
    39    13    14 ar  
    40    13    18 ar  
    41    14    15 ar  
    42    14    27 1   
    43    15    16 ar  
    44    15    51 1   
    45    16    17 ar  
    46    16    52 1   
    47    17    18 ar  
    48    17    19 1   
    49    18    53 1   
    50    19    20 1   
    51    19    21 2   
    52    20    28 2   
    53    20    54 1   
    54    21    29 1   
    55    21    55 1   
    56    22    24 1   
    57    22    30 1   
    58    22    59 1   
    59    22    60 1   
    60    23    30 1   
    61    23    61 1   
    62    23    62 1   
    63    25    26 1   
    64    28    29 1   
    65    29    63 1   
    66    56    63 1   
    67    57    63 1   
    68    58    63 1   
@<TRIPOS>SUBSTRUCTURE
     1 9U7         1 TEMP              0 ****  ****    0 ROOT
