@<TRIPOS>MOLECULE
9U8
   88    91     1     0     0
SMALL
bcc


@<TRIPOS>ATOM
      1 C3          -6.3180    -1.1410    -0.7050 c6         1 9U8      -0.118700
      2 C31          6.2230    -3.7100    -1.6330 ca         1 9U8      -0.104000
      3 C4          -6.0440    -0.8100     0.7550 c6         1 9U8      -0.079400
      4 C5          -4.6820    -1.3340     1.1800 c6         1 9U8       0.099500
      5 O1          -8.4350    -0.0050    -0.4690 o          1 9U8      -0.533000
      6 N2           1.7190     1.4030     0.5850 ns         1 9U8      -0.569900
      7 C           -9.1210    -0.8690    -4.4710 c3         1 9U8      -0.097100
      8 O           -7.8940    -0.9100    -2.4330 os         1 9U8      -0.431900
      9 C2          -7.6590    -0.6150    -1.1620 c          1 9U8       0.645100
     10 C7          -5.1740    -0.6070    -1.5710 c6         1 9U8      -0.079400
     11 C6          -3.8310    -1.1270    -1.0790 c6         1 9U8       0.099500
     12 N           -3.6260    -0.8160     0.3250 n          1 9U8      -0.481800
     13 C8          -2.4060    -0.5610     0.8940 c          1 9U8       0.796100
     14 O2          -2.2400    -0.5820     2.1080 o          1 9U8      -0.637100
     15 N1          -1.3900    -0.2150     0.0490 ns         1 9U8      -0.568900
     16 C9          -0.0170    -0.2670     0.4710 c3         1 9U8       0.037700
     17 C10          0.6450    -1.6080     0.0790 c3         1 9U8      -0.047100
     18 C11         -0.1060    -2.7730     0.6500 ca         1 9U8      -0.124300
     19 C12          0.1160    -3.2010     1.9560 ca         1 9U8      -0.079500
     20 C13         -0.6260    -4.2240     2.5190 ca         1 9U8      -0.189000
     21 C14         -1.6300    -4.8440     1.7780 ca         1 9U8       0.145100
     22 O3          -2.3300    -5.8340     2.3710 oh         1 9U8      -0.492100
     23 C15         -1.8630    -4.4340     0.4690 ca         1 9U8      -0.189000
     24 C16         -1.1030    -3.4110    -0.0800 ca         1 9U8      -0.079500
     25 C17          0.7570     0.8690    -0.1840 c          1 9U8       0.664100
     26 O4           0.5370     1.1990    -1.3400 o          1 9U8      -0.607100
     27 C18          2.6600     2.4210     0.1610 c3         1 9U8       0.114700
     28 C19          2.4430     3.7230     0.9290 c3         1 9U8      -0.091400
     29 C20          1.0430     4.3070     0.7450 c3         1 9U8      -0.030100
     30 C21          0.8920     5.6160     1.4680 ca         1 9U8      -0.081300
     31 C22          1.1110     6.8260     0.8130 ca         1 9U8      -0.125000
     32 C23          1.0120     8.0340     1.4920 ca         1 9U8      -0.127000
     33 C24          0.6930     8.0490     2.8440 ca         1 9U8      -0.129000
     34 C25          0.4740     6.8490     3.5090 ca         1 9U8      -0.127000
     35 C26          0.5730     5.6450     2.8250 ca         1 9U8      -0.125000
     36 C27          4.0940     1.9200     0.3440 c3         1 9U8      -0.068400
     37 C28          4.3590     0.6790    -0.4970 c3         1 9U8      -0.181600
     38 S            5.9990     0.0420    -0.1750 sy         1 9U8       1.003900
     39 O5           6.9810     1.0270    -0.6180 o          1 9U8      -0.581800
     40 O6           6.0530    -0.4340     1.2070 o          1 9U8      -0.581800
     41 C29          6.1010    -1.3850    -1.2530 ca         1 9U8       0.227200
     42 N3           6.1400    -1.0860    -2.5370 nb         1 9U8      -0.602000
     43 C33          6.2200    -2.0930    -3.3930 ca         1 9U8       0.391200
     44 C32          6.2690    -3.4220    -2.9860 ca         1 9U8      -0.197300
     45 C30          6.1300    -2.6610    -0.7250 ca         1 9U8      -0.153300
     46 H1          -6.3490    -2.2330    -0.8240 hc         1 9U8       0.070700
     47 H3          -6.0770     0.2720     0.9040 hc         1 9U8       0.064450
     48 H4          -6.8040    -1.2510     1.4030 hc         1 9U8       0.064450
     49 H5          -4.4830    -1.0490     2.2090 h1         1 9U8       0.047950
     50 H6          -4.6790    -2.4310     1.1420 h1         1 9U8       0.047950
     51 H7           1.7740     1.1070     1.5490 hn         1 9U8       0.315500
     52 H8          -8.3000    -0.4000    -5.0130 hc         1 9U8       0.046367
     53 H9          -9.0450    -1.9500    -4.5890 hc         1 9U8       0.046367
     54 H10        -10.0530    -0.5480    -4.9350 hc         1 9U8       0.046367
     55 H11         -9.2190     0.6160    -2.9110 h1         1 9U8       0.049200
     56 H12         -9.9680    -0.9250    -2.4890 h1         1 9U8       0.049200
     57 H13         -5.2960    -0.9030    -2.6130 hc         1 9U8       0.064450
     58 H14         -5.1680     0.4870    -1.5390 hc         1 9U8       0.064450
     59 H15         -3.7780    -2.2130    -1.2310 h1         1 9U8       0.047950
     60 H16         -3.0630    -0.6820    -1.7070 h1         1 9U8       0.047950
     61 H17         -1.5260    -0.2350    -0.9460 hn         1 9U8       0.319500
     62 H18          0.0090    -0.1650     1.5560 h1         1 9U8       0.096700
     63 H19          0.6770    -1.6780    -1.0120 hc         1 9U8       0.054700
     64 H20          1.6810    -1.6100     0.4280 hc         1 9U8       0.054700
     65 H21          0.8850    -2.7240     2.5530 ha         1 9U8       0.127500
     66 H22         -0.4340    -4.5440     3.5360 ha         1 9U8       0.139500
     67 H23         -2.9930    -6.1850     1.7660 ho         1 9U8       0.424000
     68 H24         -2.6340    -4.9100    -0.1270 ha         1 9U8       0.139500
     69 H25         -1.2950    -3.1100    -1.1030 ha         1 9U8       0.127500
     70 H26          2.4790     2.6030    -0.9000 h1         1 9U8       0.087700
     71 H27          2.6360     3.5560     1.9940 hc         1 9U8       0.050700
     72 H28          3.1860     4.4500     0.5910 hc         1 9U8       0.050700
     73 H29          0.8450     4.4450    -0.3210 hc         1 9U8       0.055700
     74 H30          0.3000     3.5970     1.1160 hc         1 9U8       0.055700
     75 H31          1.3550     6.8230    -0.2430 ha         1 9U8       0.128500
     76 H32          1.1830     8.9630     0.9640 ha         1 9U8       0.130000
     77 H33          0.6120     8.9890     3.3740 ha         1 9U8       0.130000
     78 H34          0.2230     6.8510     4.5620 ha         1 9U8       0.130000
     79 H35          0.3970     4.7130     3.3510 ha         1 9U8       0.128500
     80 H36          4.7810     2.7170     0.0550 hc         1 9U8       0.066200
     81 H37          4.2700     1.7080     1.4020 hc         1 9U8       0.066200
     82 H38          3.6640    -0.1290    -0.2610 h1         1 9U8       0.104700
     83 H39          4.2950     0.8900    -1.5650 h1         1 9U8       0.104700
     84 H40          6.2490    -1.8380    -4.4450 h4         1 9U8       0.030100
     85 H41          6.3390    -4.2100    -3.7230 ha         1 9U8       0.148000
     86 H42          6.0870    -2.8380     0.3400 ha         1 9U8       0.172000
     87 H2           6.2560    -4.7320    -1.2830 ha         1 9U8       0.146000
     88 C1          -9.1290    -0.4670    -3.0160 c3         1 9U8       0.143400
@<TRIPOS>BOND
     1     1     3 1   
     2     1     9 1   
     3     1    10 1   
     4     1    46 1   
     5     2    44 ar  
     6     2    45 ar  
     7     2    87 1   
     8     3     4 1   
     9     3    47 1   
    10     3    48 1   
    11     4    12 1   
    12     4    49 1   
    13     4    50 1   
    14     5     9 2   
    15     6    25 1   
    16     6    27 1   
    17     6    51 1   
    18     7    52 1   
    19     7    53 1   
    20     7    54 1   
    21     7    88 1   
    22     8     9 1   
    23     8    88 1   
    24    10    11 1   
    25    10    57 1   
    26    10    58 1   
    27    11    12 1   
    28    11    59 1   
    29    11    60 1   
    30    12    13 1   
    31    13    14 2   
    32    13    15 1   
    33    15    16 1   
    34    15    61 1   
    35    16    17 1   
    36    16    25 1   
    37    16    62 1   
    38    17    18 1   
    39    17    63 1   
    40    17    64 1   
    41    18    19 ar  
    42    18    24 ar  
    43    19    20 ar  
    44    19    65 1   
    45    20    21 ar  
    46    20    66 1   
    47    21    22 1   
    48    21    23 ar  
    49    22    67 1   
    50    23    24 ar  
    51    23    68 1   
    52    24    69 1   
    53    25    26 2   
    54    27    28 1   
    55    27    36 1   
    56    27    70 1   
    57    28    29 1   
    58    28    71 1   
    59    28    72 1   
    60    29    30 1   
    61    29    73 1   
    62    29    74 1   
    63    30    31 ar  
    64    30    35 ar  
    65    31    32 ar  
    66    31    75 1   
    67    32    33 ar  
    68    32    76 1   
    69    33    34 ar  
    70    33    77 1   
    71    34    35 ar  
    72    34    78 1   
    73    35    79 1   
    74    36    37 1   
    75    36    80 1   
    76    36    81 1   
    77    37    38 1   
    78    37    82 1   
    79    37    83 1   
    80    38    39 2   
    81    38    40 2   
    82    38    41 1   
    83    41    42 ar  
    84    41    45 ar  
    85    42    43 ar  
    86    43    44 ar  
    87    43    84 1   
    88    44    85 1   
    89    45    86 1   
    90    55    88 1   
    91    56    88 1   
@<TRIPOS>SUBSTRUCTURE
     1 9U8         1 TEMP              0 ****  ****    0 ROOT
