@<TRIPOS>MOLECULE
9U8
   88    91     1     0     0
SMALL
No Charge or Current Charge


@<TRIPOS>ATOM
      1 C3          -6.1580    -1.0260    -1.6610 c6         1 9U8      -0.118700
      2 C31          4.8790    -3.7820    -2.3710 ca         1 9U8      -0.086000
      3 C4          -6.3560    -0.5650    -0.2050 c6         1 9U8      -0.079400
      4 C5          -5.0660    -0.7500     0.6250 c6         1 9U8       0.099500
      5 O1          -8.0330     0.0500    -2.7660 o          1 9U8      -0.484000
      6 N2           1.8670     1.6520     0.8710 ns         1 9U8      -0.502900
      7 C           -9.2840    -3.7880    -4.0660 c3         1 9U8      -0.097100
      8 O           -7.8580    -2.2290    -2.9320 os         1 9U8      -0.455100
      9 C2          -7.4460    -0.9920    -2.5060 c          1 9U8       0.596100
     10 C7          -4.9630    -0.3090    -2.3160 c6         1 9U8      -0.079400
     11 C6          -3.6690    -0.4810    -1.4870 c6         1 9U8       0.099500
     12 N           -3.8080    -0.2460    -0.0110 n          1 9U8      -0.414800
     13 C8          -2.6740    -0.0560     0.8090 c          1 9U8       0.662100
     14 O2          -2.7400    -0.0840     2.0280 o          1 9U8      -0.637100
     15 N1          -1.4870     0.1720     0.1550 ns         1 9U8      -0.501900
     16 C9          -0.1540     0.2270     0.8010 c3         1 9U8       0.037700
     17 C10          0.5550    -1.1520     0.7190 c3         1 9U8      -0.047100
     18 C11         -0.3040    -2.3090     1.2210 ca         1 9U8      -0.124300
     19 C12         -0.3790    -2.5890     2.5990 ca         1 9U8      -0.061500
     20 C13         -1.1850    -3.6440     3.0620 ca         1 9U8      -0.171000
     21 C14         -1.9200    -4.4200     2.1530 ca         1 9U8       0.145100
     22 O3          -2.7000    -5.4390     2.6130 oh         1 9U8      -0.531100
     23 C15         -1.8500    -4.1460     0.7780 ca         1 9U8      -0.171000
     24 C16         -1.0420    -3.0940     0.3120 ca         1 9U8      -0.061500
     25 C17          0.7200     1.3440     0.1660 c          1 9U8       0.597100
     26 O4           0.4280     1.9110    -0.8800 o          1 9U8      -0.607100
     27 C18          2.8840     2.6190     0.4470 c3         1 9U8       0.114700
     28 C19          2.9250     3.8330     1.4040 c3         1 9U8      -0.091400
     29 C20          1.5950     4.6190     1.4860 c3         1 9U8      -0.030100
     30 C21          1.7130     5.8440     2.3830 ca         1 9U8      -0.081300
     31 C22          2.0510     7.0970     1.8340 ca         1 9U8      -0.107000
     32 C23          2.1630     8.2270     2.6640 ca         1 9U8      -0.109000
     33 C24          1.9390     8.1100     4.0460 ca         1 9U8      -0.111000
     34 C25          1.6040     6.8620     4.5990 ca         1 9U8      -0.109000
     35 C26          1.4910     5.7330     3.7690 ca         1 9U8      -0.107000
     36 C27          4.2600     1.9250     0.3170 c3         1 9U8      -0.068400
     37 C28          4.2530     0.7200    -0.6650 c3         1 9U8      -0.292400
     38 S            5.8710    -0.0790    -0.8410 sy         1 9U8       0.973100
     39 O5           6.7520     0.9090    -1.4850 o          1 9U8      -0.511000
     40 O6           6.2020    -0.6320     0.4820 o          1 9U8      -0.511000
     41 C29          5.5330    -1.4640    -2.0080 ca         1 9U8       0.161900
     42 N3           5.6260    -1.2420    -3.3560 nb         1 9U8      -0.602000
     43 C33          5.3570    -2.2670    -4.1990 ca         1 9U8       0.325900
     44 C32          4.9830    -3.5450    -3.7510 ca         1 9U8      -0.114000
     45 C30          5.1570    -2.7240    -1.4880 ca         1 9U8      -0.070000
     46 H1          -5.8870    -2.0910    -1.6110 hc         1 9U8       0.070700
     47 H3          -6.6450     0.4950    -0.1920 hc         1 9U8       0.064450
     48 H4          -7.1800    -1.1200     0.2640 hc         1 9U8       0.064450
     49 H5          -5.2120    -0.2570     1.5960 h1         1 9U8       0.047950
     50 H6          -4.9310    -1.8220     0.8300 h1         1 9U8       0.047950
     51 H7           2.0250     1.1420     1.7320 hn         1 9U8       0.315500
     52 H8          -8.4360    -4.1940    -4.6290 hc         1 9U8       0.046367
     53 H9          -9.4120    -4.3770    -3.1500 hc         1 9U8       0.046367
     54 H10        -10.1880    -3.9010    -4.6760 hc         1 9U8       0.046367
     55 H11         -8.9410    -1.7330    -4.6590 h1         1 9U8       0.049200
     56 H12         -9.9180    -1.9160    -3.1790 h1         1 9U8       0.049200
     57 H13         -4.8020    -0.6860    -3.3350 hc         1 9U8       0.064450
     58 H14         -5.1890     0.7620    -2.4120 hc         1 9U8       0.064450
     59 H15         -3.2930    -1.5050    -1.6310 h1         1 9U8       0.047950
     60 H16         -2.9190     0.2010    -1.9100 h1         1 9U8       0.047950
     61 H17         -1.5290     0.2480    -0.8510 hn         1 9U8       0.319500
     62 H18         -0.2830     0.4920     1.8590 h1         1 9U8       0.096700
     63 H19          0.8490    -1.3350    -0.3230 hc         1 9U8       0.054700
     64 H20          1.4920    -1.1130     1.2890 hc         1 9U8       0.054700
     65 H21          0.1810    -1.9880     3.3110 ha         1 9U8       0.109500
     66 H22         -1.2420    -3.8560     4.1260 ha         1 9U8       0.121500
     67 H23         -3.1310    -5.8700     1.8450 ho         1 9U8       0.463000
     68 H24         -2.4170    -4.7410     0.0660 ha         1 9U8       0.121500
     69 H25         -0.9960    -2.8850    -0.7540 ha         1 9U8       0.109500
     70 H26          2.6200     2.9980    -0.5510 h1         1 9U8       0.087700
     71 H27          3.2050     3.4950     2.4100 hc         1 9U8       0.050700
     72 H28          3.7150     4.5190     1.0720 hc         1 9U8       0.050700
     73 H29          1.2910     4.9180     0.4760 hc         1 9U8       0.055700
     74 H30          0.8010     3.9610     1.8610 hc         1 9U8       0.055700
     75 H31          2.2280     7.1960     0.7660 ha         1 9U8       0.110500
     76 H32          2.4240     9.1920     2.2350 ha         1 9U8       0.112000
     77 H33          2.0270     8.9840     4.6880 ha         1 9U8       0.112000
     78 H34          1.4320     6.7700     5.6690 ha         1 9U8       0.112000
     79 H35          1.2340     4.7700     4.2050 ha         1 9U8       0.110500
     80 H36          4.9980     2.6630    -0.0210 hc         1 9U8       0.066200
     81 H37          4.5860     1.5850     1.3090 hc         1 9U8       0.066200
     82 H38          3.5590    -0.0550    -0.3210 h1         1 9U8       0.104700
     83 H39          3.9510     1.0460    -1.6670 h1         1 9U8       0.104700
     84 H40          5.4430    -2.0550    -5.2640 h4         1 9U8       0.030100
     85 H41          4.7780    -4.3340    -4.4690 ha         1 9U8       0.130000
     86 H42          5.0810    -2.8810    -0.4140 ha         1 9U8       0.154000
     87 H2           4.5900    -4.7610    -1.9940 ha         1 9U8       0.128000
     88 C1          -9.0520    -2.3070    -3.7290 c3         1 9U8       0.166600
@<TRIPOS>BOND
     1     1     3 1   
     2     1     9 1   
     3     1    10 1   
     4     1    46 1   
     5     2    44 ar  
     6     2    45 ar  
     7     2    87 1   
     8     3     4 1   
     9     3    47 1   
    10     3    48 1   
    11     4    12 1   
    12     4    49 1   
    13     4    50 1   
    14     5     9 2   
    15     6    25 1   
    16     6    27 1   
    17     6    51 1   
    18     7    52 1   
    19     7    53 1   
    20     7    54 1   
    21     7    88 1   
    22     8     9 1   
    23     8    88 1   
    24    10    11 1   
    25    10    57 1   
    26    10    58 1   
    27    11    12 1   
    28    11    59 1   
    29    11    60 1   
    30    12    13 1   
    31    13    14 2   
    32    13    15 1   
    33    15    16 1   
    34    15    61 1   
    35    16    17 1   
    36    16    25 1   
    37    16    62 1   
    38    17    18 1   
    39    17    63 1   
    40    17    64 1   
    41    18    19 ar  
    42    18    24 ar  
    43    19    20 ar  
    44    19    65 1   
    45    20    21 ar  
    46    20    66 1   
    47    21    22 1   
    48    21    23 ar  
    49    22    67 1   
    50    23    24 ar  
    51    23    68 1   
    52    24    69 1   
    53    25    26 2   
    54    27    28 1   
    55    27    36 1   
    56    27    70 1   
    57    28    29 1   
    58    28    71 1   
    59    28    72 1   
    60    29    30 1   
    61    29    73 1   
    62    29    74 1   
    63    30    31 ar  
    64    30    35 ar  
    65    31    32 ar  
    66    31    75 1   
    67    32    33 ar  
    68    32    76 1   
    69    33    34 ar  
    70    33    77 1   
    71    34    35 ar  
    72    34    78 1   
    73    35    79 1   
    74    36    37 1   
    75    36    80 1   
    76    36    81 1   
    77    37    38 1   
    78    37    82 1   
    79    37    83 1   
    80    38    39 2   
    81    38    40 2   
    82    38    41 1   
    83    41    42 ar  
    84    41    45 ar  
    85    42    43 ar  
    86    43    44 ar  
    87    43    84 1   
    88    44    85 1   
    89    45    86 1   
    90    55    88 1   
    91    56    88 1   
@<TRIPOS>SUBSTRUCTURE
     1 9U8         1 TEMP              0 ****  ****    0 ROOT
