@<TRIPOS>MOLECULE
9U9
   48    49     1     0     0
SMALL
bcc


@<TRIPOS>ATOM
      1 C15        265.2630    47.7840   139.4510 cx         1 9U9      -0.155700
      2 C17        264.1580    50.2050   139.7300 c3         1 9U9      -0.046400
      3 C20        266.3920    51.4310   137.9220 c1         1 9U9      -0.149600
      4 C21        267.2530    49.4050   138.8320 c3         1 9U9      -0.046400
      5 C22        265.9830    48.6660   138.4680 cx         1 9U9      -0.101700
      6 C          259.4090    50.0790   146.9050 c          1 9U9       0.902600
      7 CA         260.3140    48.8220   146.7660 c3         1 9U9       0.007500
      8 CB         259.8090    47.8100   145.7310 c3         1 9U9      -0.041400
      9 CG         260.1390    48.1060   144.2700 c3         1 9U9      -0.064400
     10 CD         261.6210    47.9750   143.9380 c3         1 9U9      -0.099400
     11 CE         261.8720    48.1100   142.4420 c3         1 9U9       0.108000
     12 C11        263.7890    46.6930   141.9270 c          1 9U9       0.760100
     13 C14        265.7710    47.6450   140.8660 c3         1 9U9       0.187400
     14 C16        264.5770    49.0100   138.9000 cx         1 9U9      -0.101700
     15 C18        263.9760    51.4850   138.8840 c3         1 9U9       0.022700
     16 C19        265.2610    51.7040   138.2320 c1         1 9U9      -0.149600
     17 C23        267.5650    50.5670   137.8630 c3         1 9U9       0.022700
     18 N          260.5580    48.1240   148.0290 n8         1 9U9      -0.886800
     19 NZ         263.2530    47.9190   142.0470 ns         1 9U9      -0.601900
     20 O12        263.1840    45.6610   142.1350 o          1 9U9      -0.541000
     21 O13        265.0820    46.6090   141.5720 os         1 9U9      -0.436900
     22 H15        264.9240    46.8330   139.0500 hc         1 9U9       0.095700
     23 H171       263.2050    49.9810   140.2170 hc         1 9U9       0.049200
     24 H172       264.8820    50.4190   140.5190 hc         1 9U9       0.049200
     25 H211       268.0880    48.6980   138.8160 hc         1 9U9       0.049200
     26 H212       267.2060    49.8090   139.8450 hc         1 9U9       0.049200
     27 H22        266.0340    48.2530   137.4640 hc         1 9U9       0.074200
     28 HA         261.2910    49.1980   146.4280 h1         1 9U9       0.036700
     29 HB2        258.7260    47.6930   145.8400 hc         1 9U9       0.024200
     30 HB3        260.2440    46.8360   145.9800 hc         1 9U9       0.024200
     31 HG2        259.7760    49.1010   144.0080 hc         1 9U9       0.042200
     32 HG3        259.5840    47.4000   143.6430 hc         1 9U9       0.042200
     33 HD2        261.9820    46.9990   144.2740 hc         1 9U9       0.049200
     34 HD3        262.2070    48.7280   144.4720 hc         1 9U9       0.049200
     35 HE2        261.5790    49.1050   142.1010 h1         1 9U9       0.047200
     36 HE3        261.2490    47.4000   141.8940 h1         1 9U9       0.047200
     37 H141       266.8060    47.3010   140.8580 h1         1 9U9       0.051200
     38 H142       265.7680    48.5860   141.4260 h1         1 9U9       0.051200
     39 H16        263.8330    48.7760   138.1430 hc         1 9U9       0.074200
     40 H181       263.6830    52.3200   139.5240 hc         1 9U9       0.057700
     41 H182       263.1760    51.3490   138.1520 hc         1 9U9       0.057700
     42 H231       268.4830    51.0760   138.1650 hc         1 9U9       0.057700
     43 H232       267.7310    50.1910   136.8500 hc         1 9U9       0.057700
     44 H          260.6710    48.8310   148.7450 hn         1 9U9       0.325800
     45 H2         259.7030    47.6440   148.2930 hn         1 9U9       0.325800
     46 HZ         263.8390    48.7350   142.0260 hn         1 9U9       0.307500
     47 OXT        259.3240    50.5800   148.0460 o          1 9U9      -0.842800
     48 O          258.8700    50.5150   145.8680 o          1 9U9      -0.842800
@<TRIPOS>BOND
     1     1     5 1   
     2     1    13 1   
     3     1    14 1   
     4     1    22 1   
     5     2    14 1   
     6     2    15 1   
     7     2    23 1   
     8     2    24 1   
     9     3    16 3   
    10     3    17 1   
    11     4     5 1   
    12     4    17 1   
    13     4    25 1   
    14     4    26 1   
    15     5    14 1   
    16     5    27 1   
    17     6     7 1   
    18     6    47 1   
    19     6    48 1   
    20     7     8 1   
    21     7    18 1   
    22     7    28 1   
    23     8     9 1   
    24     8    29 1   
    25     8    30 1   
    26     9    10 1   
    27     9    31 1   
    28     9    32 1   
    29    10    11 1   
    30    10    33 1   
    31    10    34 1   
    32    11    19 1   
    33    11    35 1   
    34    11    36 1   
    35    12    19 1   
    36    12    20 2   
    37    12    21 1   
    38    13    21 1   
    39    13    37 1   
    40    13    38 1   
    41    14    39 1   
    42    15    16 1   
    43    15    40 1   
    44    15    41 1   
    45    17    42 1   
    46    17    43 1   
    47    18    44 1   
    48    18    45 1   
    49    19    46 1   
@<TRIPOS>SUBSTRUCTURE
     1 9U9         1 TEMP              0 ****  ****    0 ROOT
