@<TRIPOS>MOLECULE
9UA
   66    71     1     0     0
SMALL
No Charge or Current Charge


@<TRIPOS>ATOM
      1 C14         -4.7560     4.2580    -0.9870 c5         1 9UA       0.149600
      2 C5          -3.7770    -2.3760     1.2340 c6         1 9UA       0.100000
      3 C6          -4.2120    -0.8900     1.3230 c6         1 9UA      -0.035100
      4 C7          -3.3850    -0.0990     0.3470 cc         1 9UA      -0.116300
      5 C8          -2.2100    -0.5290    -0.1790 cd         1 9UA      -0.238300
      6 C9          -1.7770     0.4810    -1.0550 cd         1 9UA       0.505900
      7 C12         -4.7480     2.0380    -0.0130 c5         1 9UA       0.062300
      8 C13         -4.3900     3.5260     0.3230 c5         1 9UA      -0.117400
      9 C16         -5.6950     2.1770    -1.2490 c5         1 9UA       0.140600
     10 C18         -0.7500     0.5620    -3.2860 c6         1 9UA       0.244800
     11 C19          0.0540    -0.5660    -3.9610 c6         1 9UA      -0.096400
     12 C2          -1.6260    -3.2790     2.2540 c          1 9UA       0.611100
     13 C20          1.5400    -0.4980    -3.5530 c6         1 9UA      -0.025100
     14 C21          1.7250    -0.2610    -2.0490 ca         1 9UA      -0.123300
     15 C22          0.6620     0.2090    -1.2500 ca         1 9UA       0.339000
     16 C23          0.9070     0.4590     0.1120 ca         1 9UA      -0.141000
     17 C24          2.1690     0.2220     0.7050 ca         1 9UA      -0.127300
     18 C25          3.2270    -0.3020    -0.0920 ca         1 9UA      -0.003000
     19 C26          2.9800    -0.5130    -1.4690 ca         1 9UA      -0.078000
     20 C27          4.5620    -0.6530     0.4450 cc         1 9UA      -0.168000
     21 C28          5.0330    -0.8960     1.7520 cc         1 9UA       0.250900
     22 C31          5.6700    -0.6910    -0.3560 cd         1 9UA      -0.158000
     23 C33          2.3510     0.6040     2.1780 c3         1 9UA       0.222600
     24 C36         -1.5790    -1.8710     0.1120 c6         1 9UA       0.192300
     25 F34          1.6030     1.6770     2.5280 f          1 9UA      -0.127500
     26 F35          1.9830    -0.4070     2.9970 f          1 9UA      -0.127500
     27 N10         -2.5950     1.5050    -1.1350 nc         1 9UA      -0.541800
     28 N11         -3.5980     1.1480    -0.2430 na         1 9UA       0.142800
     29 N17         -0.6180     0.4540    -1.8140 nh         1 9UA      -0.811100
     30 N29          6.3300    -1.1110     1.8280 nd         1 9UA      -0.522800
     31 N30          6.7300    -0.9840     0.5070 na         1 9UA       0.133800
     32 N4          -2.2880    -2.5340     1.2520 n          1 9UA      -0.418800
     33 O15         -5.9640     3.5880    -1.3730 os         1 9UA      -0.447000
     34 O3          -2.2530    -3.7970     3.1700 o          1 9UA      -0.610100
     35 H1          -4.9400     5.3320    -0.8460 h1         1 9UA       0.060200
     36 H2          -3.9940     4.1200    -1.7670 h1         1 9UA       0.060200
     37 H3          -4.2500    -2.9400     2.0500 h1         1 9UA       0.065700
     38 H4          -4.1580    -2.8010     0.2940 h1         1 9UA       0.065700
     39 H5          -5.2860    -0.8020     1.1120 hc         1 9UA       0.065200
     40 H6          -4.0530    -0.5200     2.3450 hc         1 9UA       0.065200
     41 H7          -5.3220     1.6280     0.8270 h1         1 9UA       0.075700
     42 H8          -3.3400     3.6680     0.6040 hc         1 9UA       0.070700
     43 H9          -5.0000     3.8990     1.1530 hc         1 9UA       0.070700
     44 H10          0.3640    -2.4620     2.2400 hc         1 9UA       0.065700
     45 H11          0.2760    -4.1080     2.9710 hc         1 9UA       0.065700
     46 H12          0.1780    -3.8020     1.1880 hc         1 9UA       0.065700
     47 H13         -5.2080     1.8310    -2.1720 h1         1 9UA       0.058700
     48 H14         -6.6360     1.6250    -1.1260 h1         1 9UA       0.058700
     49 H15         -0.3830     1.5400    -3.6300 h1         1 9UA       0.052200
     50 H16         -1.8040     0.4790    -3.5930 h1         1 9UA       0.052200
     51 H17         -0.3670    -1.5370    -3.6650 hc         1 9UA       0.053700
     52 H18         -0.0440    -0.4990    -5.0530 hc         1 9UA       0.053700
     53 H19          2.0470    -1.4230    -3.8590 hc         1 9UA       0.050700
     54 H20          2.0300     0.3190    -4.1020 hc         1 9UA       0.050700
     55 H21          0.1030     0.8580     0.7220 ha         1 9UA       0.139000
     56 H22          3.7630    -0.9090    -2.1090 ha         1 9UA       0.111000
     57 H23          4.4630    -0.9480     2.6690 h4         1 9UA       0.048100
     58 H24          5.8100    -0.5230    -1.4170 h4         1 9UA       0.155000
     59 H25          8.7300    -0.3260     0.5740 h1         1 9UA       0.057367
     60 H26          8.5170    -2.1020     0.4980 h1         1 9UA       0.057367
     61 H27          8.2410    -1.1050    -0.9610 h1         1 9UA       0.057367
     62 H28          3.3920     0.8660     2.3830 h2         1 9UA       0.074700
     63 H29         -1.6440    -2.5150    -0.7760 h1         1 9UA       0.059700
     64 H30         -0.5160    -1.7310     0.3360 h1         1 9UA       0.059700
     65 C32          8.1420    -1.1390     0.1310 c3         1 9UA       0.072900
     66 C1          -0.1070    -3.4490     2.1850 c3         1 9UA      -0.180100
@<TRIPOS>BOND
     1     1     8 1   
     2     1    33 1   
     3     1    35 1   
     4     1    36 1   
     5     2     3 1   
     6     2    32 1   
     7     2    37 1   
     8     2    38 1   
     9     3     4 1   
    10     3    39 1   
    11     3    40 1   
    12     4     5 2   
    13     4    28 1   
    14     5     6 1   
    15     5    24 1   
    16     6    27 2   
    17     6    29 1   
    18     7     8 1   
    19     7     9 1   
    20     7    28 1   
    21     7    41 1   
    22     8    42 1   
    23     8    43 1   
    24     9    33 1   
    25     9    47 1   
    26     9    48 1   
    27    10    11 1   
    28    10    29 1   
    29    10    49 1   
    30    10    50 1   
    31    11    13 1   
    32    11    51 1   
    33    11    52 1   
    34    12    32 1   
    35    12    34 2   
    36    12    66 1   
    37    13    14 1   
    38    13    53 1   
    39    13    54 1   
    40    14    15 ar  
    41    14    19 ar  
    42    15    16 ar  
    43    15    29 1   
    44    16    17 ar  
    45    16    55 1   
    46    17    18 ar  
    47    17    23 1   
    48    18    19 ar  
    49    18    20 1   
    50    19    56 1   
    51    20    21 1   
    52    20    22 2   
    53    21    30 2   
    54    21    57 1   
    55    22    31 1   
    56    22    58 1   
    57    23    25 1   
    58    23    26 1   
    59    23    62 1   
    60    24    32 1   
    61    24    63 1   
    62    24    64 1   
    63    27    28 1   
    64    30    31 1   
    65    31    65 1   
    66    44    66 1   
    67    45    66 1   
    68    46    66 1   
    69    59    65 1   
    70    60    65 1   
    71    61    65 1   
@<TRIPOS>SUBSTRUCTURE
     1 9UA         1 TEMP              0 ****  ****    0 ROOT
