@<TRIPOS>MOLECULE
9UA
   66    71     1     0     0
SMALL
bcc


@<TRIPOS>ATOM
      1 C14         -4.3840     4.1620    -1.0850 c5         1 9UA       0.126400
      2 C5          -3.9550    -2.2910     1.2640 c6         1 9UA       0.100000
      3 C6          -4.3040    -0.8040     1.3330 c6         1 9UA      -0.035100
      4 C7          -3.3850    -0.1030     0.3980 cc         1 9UA      -0.065600
      5 C8          -2.2190    -0.6410    -0.0900 cd         1 9UA      -0.303600
      6 C9          -1.7330     0.3330    -0.9830 cd         1 9UA       0.571200
      7 C12         -4.6300     2.0330    -0.0260 c5         1 9UA       0.033000
      8 C13         -4.1700     3.4710     0.2530 c5         1 9UA      -0.117400
      9 C16         -5.4680     2.1720    -1.3200 c5         1 9UA       0.117400
     10 C18         -0.7820     0.4440    -3.2390 c6         1 9UA       0.244800
     11 C19          0.0430    -0.5820    -3.9950 c6         1 9UA      -0.096400
     12 C2          -2.0080    -3.0580     2.5150 c          1 9UA       0.678100
     13 C20          1.5110    -0.4180    -3.6350 c6         1 9UA      -0.025100
     14 C21          1.7140    -0.2980    -2.1480 ca         1 9UA      -0.123300
     15 C22          0.6520     0.0440    -1.2920 ca         1 9UA       0.200600
     16 C23          0.9170     0.1910     0.0730 ca         1 9UA      -0.159000
     17 C24          2.1850    -0.0200     0.5950 ca         1 9UA      -0.127300
     18 C25          3.2430    -0.4000    -0.2390 ca         1 9UA      -0.003000
     19 C26          2.9660    -0.5200    -1.6010 ca         1 9UA      -0.096000
     20 C27          4.6060    -0.6490     0.2410 cc         1 9UA      -0.233300
     21 C28          5.0610    -1.4330     1.3210 cc         1 9UA       0.316200
     22 C31          5.7760    -0.1910    -0.3350 cd         1 9UA      -0.125300
     23 C33          2.4210     0.1960     2.0560 c3         1 9UA       0.465200
     24 C36         -1.7240    -1.9990     0.2860 c6         1 9UA       0.192300
     25 F34          1.5340     1.0890     2.5720 f          1 9UA      -0.248800
     26 F35          2.2200    -0.9690     2.7550 f          1 9UA      -0.248800
     27 N10         -2.5350     1.3820    -1.0220 nc         1 9UA      -0.541800
     28 N11         -3.5350     1.1010    -0.1860 na         1 9UA       0.121400
     29 N17         -0.6140     0.2570    -1.8050 nh         1 9UA      -0.672700
     30 N29          6.3780    -1.4440     1.3940 nd         1 9UA      -0.522800
     31 N30          6.7940    -0.6850     0.3860 na         1 9UA       0.112400
     32 N4          -2.5220    -2.4990     1.3950 n          1 9UA      -0.485800
     33 O15         -5.5470     3.5490    -1.6100 os         1 9UA      -0.400600
     34 O3          -2.7190    -3.4040     3.4500 o          1 9UA      -0.610100
     35 H1          -4.5660     5.2330    -0.9990 h1         1 9UA       0.060200
     36 H2          -3.5220     4.0080    -1.7450 h1         1 9UA       0.060200
     37 H3          -4.4720    -2.8430     2.0430 h1         1 9UA       0.065700
     38 H4          -4.2770    -2.6950     0.3000 h1         1 9UA       0.065700
     39 H5          -5.3510    -0.6640     1.0560 hc         1 9UA       0.065200
     40 H6          -4.1880    -0.4340     2.3560 hc         1 9UA       0.065200
     41 H7          -5.2340     1.6520     0.7960 h1         1 9UA       0.075700
     42 H8          -3.1410     3.5220     0.6070 hc         1 9UA       0.070700
     43 H9          -4.8110     3.9140     1.0150 hc         1 9UA       0.070700
     44 H10          0.0250    -2.3080     2.5800 hc         1 9UA       0.065700
     45 H11         -0.2610    -3.7950     3.4790 hc         1 9UA       0.065700
     46 H12         -0.1440    -3.8310     1.7180 hc         1 9UA       0.065700
     47 H13         -4.9850     1.6180    -2.1340 h1         1 9UA       0.058700
     48 H14         -6.4800     1.7820    -1.2000 h1         1 9UA       0.058700
     49 H15         -0.4850     1.4560    -3.5360 h1         1 9UA       0.052200
     50 H16         -1.8400     0.3370    -3.4710 h1         1 9UA       0.052200
     51 H17         -0.3070    -1.5850    -3.7390 hc         1 9UA       0.053700
     52 H18         -0.1020    -0.4510    -5.0680 hc         1 9UA       0.053700
     53 H19          2.1000    -1.2520    -4.0210 hc         1 9UA       0.050700
     54 H20          1.9020     0.4810    -4.1210 hc         1 9UA       0.050700
     55 H21          0.1180     0.5120     0.7280 ha         1 9UA       0.157000
     56 H22          3.7690    -0.8150    -2.2680 ha         1 9UA       0.129000
     57 H23          4.4760    -2.0000     2.0290 h4         1 9UA       0.048100
     58 H24          5.9390     0.4530    -1.1840 h4         1 9UA       0.173000
     59 H25          8.6760    -0.0820     1.0540 h1         1 9UA       0.057367
     60 H26          8.6850    -1.4290    -0.1000 h1         1 9UA       0.057367
     61 H27          8.3380     0.2140    -0.6580 h1         1 9UA       0.057367
     62 H28          3.4280     0.5470     2.2800 h2         1 9UA       0.074700
     63 H29         -1.7860    -2.6860    -0.5660 h1         1 9UA       0.059700
     64 H30         -0.6740    -1.9560     0.5710 h1         1 9UA       0.059700
     65 C32          8.2060    -0.4870     0.1610 c3         1 9UA       0.043600
     66 C1          -0.5120    -3.2570     2.5690 c3         1 9UA      -0.180100
@<TRIPOS>BOND
     1     1     8 1   
     2     1    33 1   
     3     1    35 1   
     4     1    36 1   
     5     2     3 1   
     6     2    32 1   
     7     2    37 1   
     8     2    38 1   
     9     3     4 1   
    10     3    39 1   
    11     3    40 1   
    12     4     5 2   
    13     4    28 1   
    14     5     6 1   
    15     5    24 1   
    16     6    27 2   
    17     6    29 1   
    18     7     8 1   
    19     7     9 1   
    20     7    28 1   
    21     7    41 1   
    22     8    42 1   
    23     8    43 1   
    24     9    33 1   
    25     9    47 1   
    26     9    48 1   
    27    10    11 1   
    28    10    29 1   
    29    10    49 1   
    30    10    50 1   
    31    11    13 1   
    32    11    51 1   
    33    11    52 1   
    34    12    32 1   
    35    12    34 2   
    36    12    66 1   
    37    13    14 1   
    38    13    53 1   
    39    13    54 1   
    40    14    15 ar  
    41    14    19 ar  
    42    15    16 ar  
    43    15    29 1   
    44    16    17 ar  
    45    16    55 1   
    46    17    18 ar  
    47    17    23 1   
    48    18    19 ar  
    49    18    20 1   
    50    19    56 1   
    51    20    21 1   
    52    20    22 2   
    53    21    30 2   
    54    21    57 1   
    55    22    31 1   
    56    22    58 1   
    57    23    25 1   
    58    23    26 1   
    59    23    62 1   
    60    24    32 1   
    61    24    63 1   
    62    24    64 1   
    63    27    28 1   
    64    30    31 1   
    65    31    65 1   
    66    44    66 1   
    67    45    66 1   
    68    46    66 1   
    69    59    65 1   
    70    60    65 1   
    71    61    65 1   
@<TRIPOS>SUBSTRUCTURE
     1 9UA         1 TEMP              0 ****  ****    0 ROOT
