@<TRIPOS>MOLECULE
9UB
   92    92     1     0     0
SMALL
abcg2


@<TRIPOS>ATOM
      1 C30          3.0590    -0.3330    -0.1560 c6         1 9UB       0.189300
      2 C29          2.2600     0.2410     1.0100 c3         1 9UB      -0.464400
      3 C20         -3.2860     2.1180     1.1670 c3         1 9UB       0.258800
      4 C17         -4.9220     0.3270     1.9300 c2         1 9UB      -0.197400
      5 C16         -5.8670     0.4610     0.7670 c3         1 9UB      -0.015200
      6 C15         -5.8080    -0.7420    -0.1930 c3         1 9UB      -0.047200
      7 C14         -6.6180    -0.5130    -1.4350 c2         1 9UB      -0.221200
      8 C13         -7.0350     0.1720    -3.7800 c3         1 9UB      -0.046900
      9 C18         -5.2850    -0.7260     2.9360 c3         1 9UB      -0.031900
     10 C12         -6.1490    -0.0270    -2.5870 c2         1 9UB      -0.120400
     11 C11         -4.6960     0.3200    -2.7850 c3         1 9UB      -0.048200
     12 C09         -2.4320    -0.5080    -3.4730 c2         1 9UB      -0.279200
     13 C08         -0.0280    -0.3980    -2.9020 c3         1 9UB      -0.083900
     14 C07         -1.4140    -0.9440    -2.7260 c2         1 9UB      -0.051400
     15 C06         -1.5790    -1.9550    -1.6220 c3         1 9UB      -0.043200
     16 C05         -1.8730    -1.3120    -0.2600 c3         1 9UB      -0.049200
     17 C04         -2.2720    -2.3450     0.7500 c2         1 9UB      -0.205200
     18 C03         -1.1020    -1.3850     2.7470 c3         1 9UB      -0.054400
     19 C02         -1.9480    -2.4030     2.0430 c2         1 9UB      -0.137400
     20 C01         -2.4070    -3.5420     2.9040 c3         1 9UB      -0.054400
     21 C10         -3.8770    -0.8690    -3.3200 c3         1 9UB      -0.020200
     22 C19         -3.8180     1.0590     2.0830 c2         1 9UB      -0.165200
     23 O21         -1.8880     1.9670     0.9870 os         1 9UB      -0.588400
     24 P22         -0.8780     2.8780     1.9090 p5         1 9UB       1.455800
     25 O23         -0.6300     4.1880     1.2230 o          1 9UB      -0.856000
     26 O24         -1.3580     2.8720     3.3320 o          1 9UB      -0.856000
     27 O25          0.4360     1.9230     1.8370 os         1 9UB      -0.722800
     28 P26          1.6620     1.9500     0.7020 p5         1 9UB       1.491400
     29 O27          1.0770     2.0420    -0.6790 o          1 9UB      -0.839000
     30 O28          2.6770     2.9540     1.1690 o          1 9UB      -0.839000
     31 O31          4.0660     0.5260    -0.6460 os         1 9UB      -0.424000
     32 C32          5.1400     0.7720     0.2350 c6         1 9UB       0.148300
     33 C33          6.1140     1.6870    -0.4790 c3         1 9UB       0.178600
     34 O34          5.5210     2.9360    -0.7280 oh         1 9UB      -0.639000
     35 C35          5.8360    -0.5460     0.5960 c6         1 9UB       0.098300
     36 O36          6.8130    -0.3640     1.6010 oh         1 9UB      -0.733000
     37 C37          4.8420    -1.5730     1.1200 c6         1 9UB       0.152300
     38 O38          5.4430    -2.8350     1.2770 oh         1 9UB      -0.672000
     39 C39          3.6810    -1.7110     0.1450 c6         1 9UB       0.082700
     40 N40          2.7140    -2.6550     0.6510 ns         1 9UB      -0.477900
     41 C41          1.9340    -3.4220    -0.1320 c          1 9UB       0.607100
     42 C42          0.9660    -4.3050     0.6120 c3         1 9UB      -0.186100
     43 O43          1.9860    -3.3900    -1.3550 o          1 9UB      -0.630100
     44 H1           2.3670    -0.4610    -0.9910 h1         1 9UB       0.103700
     45 H2           1.3920    -0.4040     1.1540 hc         1 9UB       0.050200
     46 H3           2.8170     0.2290     1.9510 hc         1 9UB       0.050200
     47 H4          -3.7450     2.0580     0.1770 h1         1 9UB       0.021700
     48 H5          -3.5340     3.1140     1.5580 h1         1 9UB       0.021700
     49 H6          -6.8910     0.5660     1.1410 hc         1 9UB       0.030700
     50 H7          -5.6690     1.3680     0.1950 hc         1 9UB       0.030700
     51 H8          -4.7620    -0.9420    -0.4380 hc         1 9UB       0.048200
     52 H9          -6.1750    -1.6360     0.3150 hc         1 9UB       0.048200
     53 H10         -7.6790    -0.7420    -1.3650 ha         1 9UB       0.143000
     54 H11         -7.0670     1.2250    -4.0720 hc         1 9UB       0.026367
     55 H12         -6.6600    -0.3760    -4.6480 hc         1 9UB       0.026367
     56 H13         -8.0570    -0.1580    -3.5920 hc         1 9UB       0.026367
     57 H14         -5.3410    -1.7120     2.4690 hc         1 9UB       0.019033
     58 H15         -4.5500    -0.7900     3.7380 hc         1 9UB       0.019033
     59 H16         -6.2650    -0.5330     3.3800 hc         1 9UB       0.019033
     60 H17         -4.6140     1.1550    -3.4880 hc         1 9UB       0.060200
     61 H18         -4.2420     0.6640    -1.8530 hc         1 9UB       0.060200
     62 H19         -2.2230     0.2380    -4.2380 ha         1 9UB       0.161000
     63 H20          0.2760     0.1940    -2.0320 hc         1 9UB       0.063700
     64 H21          0.7050    -1.2020    -3.0070 hc         1 9UB       0.063700
     65 H22          0.0470     0.2480    -3.7780 hc         1 9UB       0.063700
     66 H23         -2.3840    -2.6550    -1.8580 hc         1 9UB       0.030200
     67 H24         -0.6700    -2.5600    -1.5480 hc         1 9UB       0.030200
     68 H25         -1.0130    -0.7320     0.0760 hc         1 9UB       0.085200
     69 H26         -2.6800    -0.5820    -0.3820 hc         1 9UB       0.085200
     70 H27         -2.9020    -3.1430     0.3600 ha         1 9UB       0.135000
     71 H28         -0.9510    -0.4770     2.1690 hc         1 9UB       0.037367
     72 H29         -1.5700    -1.0940     3.6900 hc         1 9UB       0.037367
     73 H30         -0.1240    -1.8030     3.0040 hc         1 9UB       0.037367
     74 H31         -1.5540    -4.0610     3.3510 hc         1 9UB       0.037367
     75 H32         -3.0210    -3.1860     3.7360 hc         1 9UB       0.037367
     76 H33         -2.9890    -4.2720     2.3430 hc         1 9UB       0.037367
     77 H34         -4.0030    -1.7110    -2.6350 hc         1 9UB       0.025200
     78 H35         -4.2940    -1.1830    -4.2820 hc         1 9UB       0.025200
     79 H36         -3.2030     0.8920     2.9620 ha         1 9UB       0.201000
     80 H39          4.7890     1.2660     1.1520 h1         1 9UB       0.113700
     81 H40          7.0100     1.7890     0.1470 h1         1 9UB      -0.010300
     82 H41          6.4330     1.1940    -1.4100 h1         1 9UB      -0.010300
     83 H42          6.1820     3.4890    -1.1550 ho         1 9UB       0.470000
     84 H43          6.2900    -0.9580    -0.3180 h1         1 9UB       0.031700
     85 H44          7.6670    -0.2090     1.1880 ho         1 9UB       0.492000
     86 H45          4.4600    -1.2120     2.0900 h1         1 9UB       0.059700
     87 H46          6.1840    -2.7320     1.8830 ho         1 9UB       0.437000
     88 H47          4.0740    -2.1050    -0.7970 h1         1 9UB       0.070700
     89 H48          2.6030    -2.7270     1.6500 hn         1 9UB       0.312500
     90 H49          0.0100    -3.7840     0.7120 hc         1 9UB       0.055700
     91 H50          0.7860    -5.2200     0.0510 hc         1 9UB       0.055700
     92 H51          1.3100    -4.5610     1.6130 hc         1 9UB       0.055700
@<TRIPOS>BOND
     1     1     2 1   
     2     1    31 1   
     3     1    39 1   
     4     1    44 1   
     5     2    28 1   
     6     2    45 1   
     7     2    46 1   
     8     3    22 1   
     9     3    23 1   
    10     3    47 1   
    11     3    48 1   
    12     4     5 1   
    13     4     9 1   
    14     4    22 2   
    15     5     6 1   
    16     5    49 1   
    17     5    50 1   
    18     6     7 1   
    19     6    51 1   
    20     6    52 1   
    21     7    10 2   
    22     7    53 1   
    23     8    10 1   
    24     8    54 1   
    25     8    55 1   
    26     8    56 1   
    27     9    57 1   
    28     9    58 1   
    29     9    59 1   
    30    10    11 1   
    31    11    21 1   
    32    11    60 1   
    33    11    61 1   
    34    12    14 2   
    35    12    21 1   
    36    12    62 1   
    37    13    14 1   
    38    13    63 1   
    39    13    64 1   
    40    13    65 1   
    41    14    15 1   
    42    15    16 1   
    43    15    66 1   
    44    15    67 1   
    45    16    17 1   
    46    16    68 1   
    47    16    69 1   
    48    17    19 2   
    49    17    70 1   
    50    18    19 1   
    51    18    71 1   
    52    18    72 1   
    53    18    73 1   
    54    19    20 1   
    55    20    74 1   
    56    20    75 1   
    57    20    76 1   
    58    21    77 1   
    59    21    78 1   
    60    22    79 1   
    61    23    24 1   
    62    24    25 1   
    63    24    26 1   
    64    24    27 1   
    65    27    28 1   
    66    28    29 1   
    67    28    30 1   
    68    31    32 1   
    69    32    33 1   
    70    32    35 1   
    71    32    80 1   
    72    33    34 1   
    73    33    81 1   
    74    33    82 1   
    75    34    83 1   
    76    35    36 1   
    77    35    37 1   
    78    35    84 1   
    79    36    85 1   
    80    37    38 1   
    81    37    39 1   
    82    37    86 1   
    83    38    87 1   
    84    39    40 1   
    85    39    88 1   
    86    40    41 1   
    87    40    89 1   
    88    41    42 1   
    89    41    43 2   
    90    42    90 1   
    91    42    91 1   
    92    42    92 1   
@<TRIPOS>SUBSTRUCTURE
     1 9UB         1 TEMP              0 ****  ****    0 ROOT
