@<TRIPOS>MOLECULE
9UB
   92    92     1     0     0
SMALL
No Charge or Current Charge


@<TRIPOS>ATOM
      1 C30          3.2760    -0.1750    -0.0610 c6         1 9UB       0.189300
      2 C29          2.4030     0.4560     1.0630 c3         1 9UB      -0.464400
      3 C20         -3.1280     2.0380     0.7960 c3         1 9UB       0.258800
      4 C17         -4.6940     0.3120     1.8900 c2         1 9UB      -0.197400
      5 C16         -5.8450     0.4530     0.8970 c3         1 9UB      -0.015200
      6 C15         -5.9880    -0.7630    -0.0440 c3         1 9UB      -0.047200
      7 C14         -6.8730    -0.4690    -1.2420 c2         1 9UB      -0.221200
      8 C13         -7.4410     0.1900    -3.6000 c3         1 9UB      -0.046900
      9 C18         -4.9730    -0.6970     2.9920 c3         1 9UB      -0.031900
     10 C12         -6.4720    -0.0340    -2.4520 c2         1 9UB      -0.120400
     11 C11         -5.0260     0.2880    -2.8160 c3         1 9UB      -0.048200
     12 C09         -2.8150    -0.6260    -3.6620 c2         1 9UB      -0.279200
     13 C08         -0.3560    -0.7750    -3.2000 c3         1 9UB      -0.083900
     14 C07         -1.8040    -1.1520    -2.9410 c2         1 9UB      -0.051400
     15 C06         -1.9550    -2.1570    -1.8020 c3         1 9UB      -0.043200
     16 C05         -1.9460    -1.4920    -0.4070 c3         1 9UB      -0.049200
     17 C04         -2.3160    -2.4620     0.7070 c2         1 9UB      -0.205200
     18 C03         -0.9220    -1.4490     2.5880 c3         1 9UB      -0.054400
     19 C02         -1.8770    -2.4630     1.9800 c2         1 9UB      -0.137400
     20 C01         -2.3040    -3.5200     2.9820 c3         1 9UB      -0.054400
     21 C10         -4.3070    -0.8820    -3.5180 c3         1 9UB      -0.020200
     22 C19         -3.5380     1.0050     1.8310 c2         1 9UB      -0.165200
     23 O21         -1.7120     1.9830     0.6200 os         1 9UB      -0.588400
     24 P22         -0.7450     2.9390     1.4820 p5         1 9UB       1.455800
     25 O23         -0.3990     4.1970     0.7580 o          1 9UB      -0.856000
     26 O24         -1.3470     3.2540     2.8120 o          1 9UB      -0.856000
     27 O25          0.4340     1.9210     1.7170 os         1 9UB      -0.722800
     28 P26          1.5740     2.0290     0.6330 p5         1 9UB       1.491400
     29 O27          1.1110     1.9320    -0.7850 o          1 9UB      -0.839000
     30 O28          2.5210     3.1510     0.9130 o          1 9UB      -0.839000
     31 O31          4.3950     0.6950    -0.3680 os         1 9UB      -0.424000
     32 C32          5.4150     0.8380     0.6640 c6         1 9UB       0.148300
     33 C33          6.5260     1.8020     0.1250 c3         1 9UB       0.178600
     34 O34          6.0290     3.0730    -0.3170 oh         1 9UB      -0.639000
     35 C35          6.0020    -0.5640     1.0330 c6         1 9UB       0.098300
     36 O36          6.9520    -0.4930     2.1210 oh         1 9UB      -0.733000
     37 C37          4.8470    -1.5380     1.4070 c6         1 9UB       0.152300
     38 O38          5.3950    -2.8320     1.7100 oh         1 9UB      -0.672000
     39 C39          3.8060    -1.6140     0.2490 c6         1 9UB       0.082700
     40 N40          2.7250    -2.5720     0.5600 ns         1 9UB      -0.477900
     41 C41          1.8970    -3.1620    -0.3620 c          1 9UB       0.607100
     42 C42          0.9300    -4.1910     0.2090 c3         1 9UB      -0.186100
     43 O43          1.9440    -2.8920    -1.5530 o          1 9UB      -0.630100
     44 H1           2.6520    -0.2450    -0.9660 h1         1 9UB       0.103700
     45 H2           1.5830    -0.2260     1.3040 hc         1 9UB       0.050200
     46 H3           2.9480     0.6230     1.9950 hc         1 9UB       0.050200
     47 H4          -3.6150     1.8260    -0.1620 h1         1 9UB       0.021700
     48 H5          -3.4520     3.0380     1.1160 h1         1 9UB       0.021700
     49 H6          -6.7910     0.6080     1.4300 hc         1 9UB       0.030700
     50 H7          -5.7130     1.3500     0.2810 hc         1 9UB       0.030700
     51 H8          -4.9920    -1.0770    -0.3750 hc         1 9UB       0.048200
     52 H9          -6.3920    -1.6140     0.5180 hc         1 9UB       0.048200
     53 H10         -7.9300    -0.6710    -1.0610 ha         1 9UB       0.143000
     54 H11         -7.4240     1.2340    -3.9340 hc         1 9UB       0.026367
     55 H12         -7.1900    -0.4410    -4.4610 hc         1 9UB       0.026367
     56 H13         -8.4730    -0.0450    -3.3120 hc         1 9UB       0.026367
     57 H14         -5.0950    -1.7080     2.5870 hc         1 9UB       0.019033
     58 H15         -4.1540    -0.7370     3.7200 hc         1 9UB       0.019033
     59 H16         -5.8870    -0.4410     3.5410 hc         1 9UB       0.019033
     60 H17         -4.9750     1.1820    -3.4500 hc         1 9UB       0.060200
     61 H18         -4.4570     0.5420    -1.9160 hc         1 9UB       0.060200
     62 H19         -2.5870     0.0870    -4.4550 ha         1 9UB       0.161000
     63 H20          0.1110    -0.3430    -2.3070 hc         1 9UB       0.063700
     64 H21          0.2330    -1.6510    -3.4940 hc         1 9UB       0.063700
     65 H22         -0.2640    -0.0350    -4.0040 hc         1 9UB       0.063700
     66 H23         -2.8840    -2.7250    -1.9090 hc         1 9UB       0.030200
     67 H24         -1.1580    -2.9080    -1.8490 hc         1 9UB       0.030200
     68 H25         -0.9600    -1.0470    -0.2380 hc         1 9UB       0.085200
     69 H26         -2.6600    -0.6610    -0.4170 hc         1 9UB       0.085200
     70 H27         -3.0130    -3.2380     0.3900 ha         1 9UB       0.135000
     71 H28         -0.7160    -0.6100     1.9180 hc         1 9UB       0.037367
     72 H29         -1.3370    -1.0220     3.5090 hc         1 9UB       0.037367
     73 H30          0.0380    -1.9130     2.8430 hc         1 9UB       0.037367
     74 H31         -1.4380    -4.0750     3.3630 hc         1 9UB       0.037367
     75 H32         -2.8170    -3.0680     3.8400 hc         1 9UB       0.037367
     76 H33         -2.9910    -4.2500     2.5370 hc         1 9UB       0.037367
     77 H34         -4.5100    -1.7990    -2.9560 hc         1 9UB       0.025200
     78 H35         -4.7510    -1.0370    -4.5080 hc         1 9UB       0.025200
     79 H36         -2.7770     0.8470     2.5940 ha         1 9UB       0.201000
     80 H39          4.9760     1.3040     1.5570 h1         1 9UB       0.113700
     81 H40          7.2660     1.9600     0.9190 h1         1 9UB      -0.010300
     82 H41          7.0430     1.3030    -0.7060 h1         1 9UB      -0.010300
     83 H42          6.7930     3.5630    -0.6940 ho         1 9UB       0.470000
     84 H43          6.5020    -0.9650     0.1380 h1         1 9UB       0.031700
     85 H44          7.8000    -0.1520     1.7530 ho         1 9UB       0.492000
     86 H45          4.3440    -1.1430     2.3020 h1         1 9UB       0.059700
     87 H46          6.2320    -2.6320     2.1870 ho         1 9UB       0.437000
     88 H47          4.3250    -1.9810    -0.6490 h1         1 9UB       0.070700
     89 H48          2.6300    -2.8860     1.5170 hn         1 9UB       0.312500
     90 H49          0.4220    -3.7700     1.0820 hc         1 9UB       0.055700
     91 H50          0.2240    -4.5700    -0.5370 hc         1 9UB       0.055700
     92 H51          1.5120    -5.0070     0.6520 hc         1 9UB       0.055700
@<TRIPOS>BOND
     1     1     2 1   
     2     1    31 1   
     3     1    39 1   
     4     1    44 1   
     5     2    28 1   
     6     2    45 1   
     7     2    46 1   
     8     3    22 1   
     9     3    23 1   
    10     3    47 1   
    11     3    48 1   
    12     4     5 1   
    13     4     9 1   
    14     4    22 2   
    15     5     6 1   
    16     5    49 1   
    17     5    50 1   
    18     6     7 1   
    19     6    51 1   
    20     6    52 1   
    21     7    10 2   
    22     7    53 1   
    23     8    10 1   
    24     8    54 1   
    25     8    55 1   
    26     8    56 1   
    27     9    57 1   
    28     9    58 1   
    29     9    59 1   
    30    10    11 1   
    31    11    21 1   
    32    11    60 1   
    33    11    61 1   
    34    12    14 2   
    35    12    21 1   
    36    12    62 1   
    37    13    14 1   
    38    13    63 1   
    39    13    64 1   
    40    13    65 1   
    41    14    15 1   
    42    15    16 1   
    43    15    66 1   
    44    15    67 1   
    45    16    17 1   
    46    16    68 1   
    47    16    69 1   
    48    17    19 2   
    49    17    70 1   
    50    18    19 1   
    51    18    71 1   
    52    18    72 1   
    53    18    73 1   
    54    19    20 1   
    55    20    74 1   
    56    20    75 1   
    57    20    76 1   
    58    21    77 1   
    59    21    78 1   
    60    22    79 1   
    61    23    24 1   
    62    24    25 1   
    63    24    26 1   
    64    24    27 1   
    65    27    28 1   
    66    28    29 1   
    67    28    30 1   
    68    31    32 1   
    69    32    33 1   
    70    32    35 1   
    71    32    80 1   
    72    33    34 1   
    73    33    81 1   
    74    33    82 1   
    75    34    83 1   
    76    35    36 1   
    77    35    37 1   
    78    35    84 1   
    79    36    85 1   
    80    37    38 1   
    81    37    39 1   
    82    37    86 1   
    83    38    87 1   
    84    39    40 1   
    85    39    88 1   
    86    40    41 1   
    87    40    89 1   
    88    41    42 1   
    89    41    43 2   
    90    42    90 1   
    91    42    91 1   
    92    42    92 1   
@<TRIPOS>SUBSTRUCTURE
     1 9UB         1 TEMP              0 ****  ****    0 ROOT
