@<TRIPOS>MOLECULE
9UC
   41    41     1     0     0
SMALL
bcc


@<TRIPOS>ATOM
      1 C15        196.5570    31.1630    75.7610 ca         1 9UC      -0.056300
      2 C17        196.7840    33.1450    74.4060 ca         1 9UC      -0.064500
      3 C22        196.1530    31.0450    73.3830 ca         1 9UC      -0.064500
      4 C          188.0000    31.3050    81.0840 c          1 9UC       0.933600
      5 CA         189.0860    31.3590    82.1900 c3         1 9UC       0.024500
      6 CB         190.4830    30.9470    81.7310 c3         1 9UC      -0.033400
      7 CG         191.2380    32.0160    80.9510 c3         1 9UC      -0.072400
      8 CD         192.6350    31.5700    80.5400 c3         1 9UC      -0.099400
      9 CE         193.3680    32.6550    79.7610 c3         1 9UC       0.111000
     10 C11        194.9600    31.5280    78.2900 c          1 9UC       0.740100
     11 C14        196.6690    30.4590    77.0860 c3         1 9UC       0.201700
     12 C16        196.8470    32.5190    75.6380 ca         1 9UC      -0.122000
     13 C18        196.4390    32.3990    73.2890 ca         1 9UC      -0.179200
     14 C23        196.2110    30.4390    74.6250 ca         1 9UC      -0.122000
     15 N          188.6680    30.5090    83.3020 n8         1 9UC      -0.886800
     16 NZ         194.7110    32.2910    79.3630 ns         1 9UC      -0.560900
     17 N19        196.3750    33.0500    71.9900 no         1 9UC       0.316200
     18 O12        194.1340    31.1240    77.4990 o          1 9UC      -0.569000
     19 O13        196.2780    31.2670    78.1820 os         1 9UC      -0.444900
     20 O20        196.6100    34.2340    71.9360 o          1 9UC      -0.216000
     21 O21        196.0910    32.3740    71.0290 o          1 9UC      -0.216000
     22 H17        197.0080    34.1990    74.3280 ha         1 9UC       0.166000
     23 H22        195.8790    30.4670    72.5130 ha         1 9UC       0.166000
     24 HA         189.1440    32.4220    82.4930 h1         1 9UC      -0.011300
     25 HB2        190.4260    30.0260    81.1420 hc         1 9UC       0.022700
     26 HB3        191.0760    30.6980    82.6200 hc         1 9UC       0.022700
     27 HG2        191.3130    32.9220    81.5650 hc         1 9UC       0.048200
     28 HG3        190.6650    32.2910    80.0640 hc         1 9UC       0.048200
     29 HD2        192.5680    30.6680    79.9250 hc         1 9UC       0.039700
     30 HD3        193.2190    31.3030    81.4260 hc         1 9UC       0.039700
     31 HE2        193.4470    33.5580    80.3690 h1         1 9UC       0.056200
     32 HE3        192.7960    32.9310    78.8730 h1         1 9UC       0.056200
     33 H14        196.1100    29.5210    77.0660 h1         1 9UC       0.069200
     34 H15        197.7140    30.2140    77.2770 h1         1 9UC       0.069200
     35 H16        197.1240    33.1040    76.5060 ha         1 9UC       0.149500
     36 H23        195.9740    29.3850    74.7100 ha         1 9UC       0.149500
     37 H          189.1760    30.7700    84.1380 hn         1 9UC       0.323800
     38 H2         187.6900    30.6970    83.4860 hn         1 9UC       0.323800
     39 HZ         195.4680    32.4990    79.9950 hn         1 9UC       0.316500
     40 O          188.3710    31.3390    79.8950 o          1 9UC      -0.837800
     41 OXT        186.8190    31.2630    81.4870 o          1 9UC      -0.837800
@<TRIPOS>BOND
     1     1    11 1   
     2     1    12 ar  
     3     1    14 ar  
     4     2    12 ar  
     5     2    13 ar  
     6     2    22 1   
     7     3    13 ar  
     8     3    14 ar  
     9     3    23 1   
    10     4     5 1   
    11     4    40 1   
    12     4    41 1   
    13     5     6 1   
    14     5    15 1   
    15     5    24 1   
    16     6     7 1   
    17     6    25 1   
    18     6    26 1   
    19     7     8 1   
    20     7    27 1   
    21     7    28 1   
    22     8     9 1   
    23     8    29 1   
    24     8    30 1   
    25     9    16 1   
    26     9    31 1   
    27     9    32 1   
    28    10    16 1   
    29    10    18 2   
    30    10    19 1   
    31    11    19 1   
    32    11    33 1   
    33    11    34 1   
    34    12    35 1   
    35    13    17 1   
    36    14    36 1   
    37    15    37 1   
    38    15    38 1   
    39    16    39 1   
    40    17    20 1   
    41    17    21 1   
@<TRIPOS>SUBSTRUCTURE
     1 9UC         1 TEMP              0 ****  ****    0 ROOT
