@<TRIPOS>MOLECULE
9UD
   69    74     1     0     0
SMALL
abcg2


@<TRIPOS>ATOM
      1 C4           3.4740     0.1270     0.4030 ca         1 9UD      -0.009000
      2 C5           3.2050     0.2340     1.7650 ca         1 9UD      -0.072000
      3 C6           1.9300     0.1450     2.3000 ca         1 9UD      -0.128300
      4 N1           6.7170     1.0040    -1.1090 nc         1 9UD      -0.521800
      5 C7           0.8420    -0.0420     1.4280 ca         1 9UD       0.343000
      6 C8           1.1010    -0.1840     0.0600 ca         1 9UD      -0.144000
      7 N2          -0.4460    -0.1020     1.9210 nh         1 9UD      -0.810100
      8 C9           2.3880    -0.0970    -0.4480 ca         1 9UD      -0.124300
      9 C10          2.6240    -0.3740    -1.9010 c3         1 9UD       0.224600
     10 C11         -0.6680    -0.2600     3.3510 c6         1 9UD       0.244800
     11 C12          0.2900     0.6230     4.1300 c6         1 9UD      -0.096400
     12 N3          -2.4630    -0.9800     1.0620 nc         1 9UD      -0.532800
     13 C13          1.7230     0.2510     3.7870 c6         1 9UD      -0.024100
     14 C14         -1.5520    -0.0240     1.0790 cd         1 9UD       0.500900
     15 C15         -4.5880    -1.3730    -0.0070 c6         1 9UD       0.105300
     16 N4          -3.4100    -0.5600     0.2240 na         1 9UD       0.143800
     17 N            7.0190    -0.0260    -0.3290 na         1 9UD       0.133800
     18 C            8.3800    -0.4980    -0.2430 c3         1 9UD       0.072900
     19 O           -6.2110    -3.6980     0.4430 os         1 9UD      -0.443000
     20 C1           5.9440    -0.5130     0.3140 cc         1 9UD      -0.152000
     21 C16         -5.4100    -1.5540     1.2630 c6         1 9UD      -0.126900
     22 C17         -6.6050    -2.4510     0.9720 c6         1 9UD       0.154600
     23 C18         -5.5020    -3.5560    -0.7690 c6         1 9UD       0.154600
     24 C19         -4.2320    -2.7360    -0.5930 c6         1 9UD      -0.126900
     25 C2           4.8590     0.2470    -0.0740 cd         1 9UD      -0.165000
     26 C20         -3.1170     0.6420    -0.3110 cc         1 9UD      -0.119300
     27 C21         -1.9100     1.0310     0.2180 cd         1 9UD      -0.240300
     28 C22         -1.2610     2.3370    -0.1060 c6         1 9UD       0.192300
     29 C23         -3.3990     2.8990    -1.1520 c6         1 9UD       0.100000
     30 C24         -3.9320     1.4670    -1.2430 c6         1 9UD      -0.035100
     31 C26          0.1720     3.2900    -2.4140 c3         1 9UD      -0.180100
     32 C3           5.4180     1.1830    -0.9660 cd         1 9UD       0.243900
     33 F            2.8950    -1.7030    -2.0740 f          1 9UD      -0.125000
     34 F1           1.5060    -0.1220    -2.6410 f          1 9UD      -0.125000
     35 N5          -1.9490     2.9260    -1.2440 n          1 9UD      -0.416800
     36 O1          -1.9740     3.7320    -3.3480 o          1 9UD      -0.609100
     37 H1           4.0330     0.4070     2.4430 ha         1 9UD       0.112000
     38 H2           0.2740    -0.3780    -0.6110 ha         1 9UD       0.139000
     39 H3           3.4450     0.1920    -2.3370 h2         1 9UD       0.069700
     40 H4          -1.7000     0.0130     3.5620 h1         1 9UD       0.051700
     41 H5          -0.5430    -1.3070     3.6520 h1         1 9UD       0.051700
     42 H6           0.0970     1.6700     3.8850 hc         1 9UD       0.052700
     43 H7           0.1120     0.5020     5.2000 hc         1 9UD       0.052700
     44 H8           1.9710    -0.7080     4.2520 hc         1 9UD       0.050700
     45 H9           2.4210     0.9790     4.2050 hc         1 9UD       0.050700
     46 H10         -5.1920    -0.8300    -0.7390 h1         1 9UD       0.059700
     47 H11          9.0300     0.2870     0.1410 h1         1 9UD       0.057367
     48 H12          8.4180    -1.3480     0.4310 h1         1 9UD       0.057367
     49 H13          8.7370    -0.8090    -1.2230 h1         1 9UD       0.057367
     50 H14          6.0120    -1.3550     0.9840 h4         1 9UD       0.157000
     51 H15         -4.7900    -2.0010     2.0440 hc         1 9UD       0.069950
     52 H16         -5.7620    -0.5880     1.6330 hc         1 9UD       0.069950
     53 H17         -7.2870    -1.9400     0.2770 h1         1 9UD       0.047700
     54 H18         -7.1610    -2.6520     1.8890 h1         1 9UD       0.047700
     55 H19         -5.2610    -4.5600    -1.1210 h1         1 9UD       0.047700
     56 H20         -6.1400    -3.0830    -1.5310 h1         1 9UD       0.047700
     57 H21         -3.7380    -2.6210    -1.5600 hc         1 9UD       0.069950
     58 H22         -3.5420    -3.2560     0.0750 hc         1 9UD       0.069950
     59 H23         -1.3070     3.0180     0.7510 h1         1 9UD       0.059200
     60 H24         -0.2050     2.1990    -0.3320 h1         1 9UD       0.059200
     61 H25         -3.8240     3.5190    -1.9350 h1         1 9UD       0.065200
     62 H26         -3.6880     3.3310    -0.1910 h1         1 9UD       0.065200
     63 H27         -3.8570     1.0980    -2.2690 hc         1 9UD       0.064700
     64 H28         -4.9910     1.4570    -0.9740 hc         1 9UD       0.064700
     65 H29          0.6220     3.8170    -1.5730 hc         1 9UD       0.064033
     66 H30          0.5360     2.2620    -2.3930 hc         1 9UD       0.064033
     67 H31          0.5180     3.7500    -3.3360 hc         1 9UD       0.064033
     68 H32          4.9150     1.9850    -1.4890 h4         1 9UD       0.038100
     69 C25         -1.3380     3.3340    -2.3810 c          1 9UD       0.611100
@<TRIPOS>BOND
     1     1     2 ar  
     2     1     8 ar  
     3     1    25 1   
     4     2     3 ar  
     5     2    37 1   
     6     3     5 ar  
     7     3    13 1   
     8     4    17 1   
     9     4    32 2   
    10     5     6 ar  
    11     5     7 1   
    12     6     8 ar  
    13     6    38 1   
    14     7    10 1   
    15     7    14 1   
    16     8     9 1   
    17     9    33 1   
    18     9    34 1   
    19     9    39 1   
    20    10    11 1   
    21    10    40 1   
    22    10    41 1   
    23    11    13 1   
    24    11    42 1   
    25    11    43 1   
    26    12    14 2   
    27    12    16 1   
    28    13    44 1   
    29    13    45 1   
    30    14    27 1   
    31    15    16 1   
    32    15    21 1   
    33    15    24 1   
    34    15    46 1   
    35    16    26 1   
    36    17    18 1   
    37    17    20 1   
    38    18    47 1   
    39    18    48 1   
    40    18    49 1   
    41    19    22 1   
    42    19    23 1   
    43    20    25 2   
    44    20    50 1   
    45    21    22 1   
    46    21    51 1   
    47    21    52 1   
    48    22    53 1   
    49    22    54 1   
    50    23    24 1   
    51    23    55 1   
    52    23    56 1   
    53    24    57 1   
    54    24    58 1   
    55    25    32 1   
    56    26    27 2   
    57    26    30 1   
    58    27    28 1   
    59    28    35 1   
    60    28    59 1   
    61    28    60 1   
    62    29    30 1   
    63    29    35 1   
    64    29    61 1   
    65    29    62 1   
    66    30    63 1   
    67    30    64 1   
    68    31    65 1   
    69    31    66 1   
    70    31    67 1   
    71    31    69 1   
    72    32    68 1   
    73    35    69 1   
    74    36    69 2   
@<TRIPOS>SUBSTRUCTURE
     1 9UD         1 TEMP              0 ****  ****    0 ROOT
