@<TRIPOS>MOLECULE
9UD
   69    74     1     0     0
SMALL
No Charge or Current Charge


@<TRIPOS>ATOM
      1 C4           3.4640    -0.0170     0.2020 ca         1 9UD      -0.009000
      2 C5           3.2450     0.1000     1.5940 ca         1 9UD      -0.072000
      3 C6           1.9680    -0.0220     2.1640 ca         1 9UD      -0.128300
      4 N1           6.6400     0.6800    -1.6440 nc         1 9UD      -0.521800
      5 C7           0.8530    -0.2760     1.3410 ca         1 9UD       0.343000
      6 C8           1.0640    -0.4410    -0.0410 ca         1 9UD      -0.144000
      7 N2          -0.4490    -0.3920     1.8970 nh         1 9UD      -0.810100
      8 C9           2.3450    -0.3140    -0.6340 ca         1 9UD      -0.124300
      9 C10          2.4810    -0.5590    -2.1470 c3         1 9UD       0.224600
     10 C11         -0.5940    -0.6050     3.3570 c6         1 9UD       0.244800
     11 C12          0.3560     0.3410     4.1150 c6         1 9UD      -0.096400
     12 N3          -2.5440    -1.1430     1.1750 nc         1 9UD      -0.532800
     13 C13          1.8190     0.1060     3.6850 c6         1 9UD      -0.024100
     14 C14         -1.6040    -0.2270     1.1480 cd         1 9UD       0.500900
     15 C15         -4.7710    -1.3190    -0.0080 c6         1 9UD       0.105300
     16 N4          -3.4970    -0.6220     0.3060 na         1 9UD       0.143800
     17 N            7.0370     0.4260    -0.3540 na         1 9UD       0.133800
     18 C            8.4600     0.4950     0.0050 c3         1 9UD       0.072900
     19 O           -6.6640    -3.4610     0.4050 os         1 9UD      -0.443000
     20 C1           5.9840     0.1390     0.5050 cc         1 9UD      -0.152000
     21 C16         -5.7120    -1.3610     1.2250 c6         1 9UD      -0.126900
     22 C17         -7.0020    -2.1420     0.8880 c6         1 9UD       0.154600
     23 C18         -5.8790    -3.4630    -0.8060 c6         1 9UD       0.154600
     24 C19         -4.5290    -2.7520    -0.5560 c6         1 9UD      -0.126900
     25 C2           4.8620     0.1630    -0.2870 cd         1 9UD      -0.165000
     26 C20         -3.1250     0.6200    -0.2160 cc         1 9UD      -0.119300
     27 C21         -1.9070     0.8730     0.3290 cd         1 9UD      -0.240300
     28 C22         -1.1150     2.1410     0.0980 c6         1 9UD       0.192300
     29 C23         -3.1620     2.9460    -1.0950 c6         1 9UD       0.100000
     30 C24         -3.8340     1.5480    -1.1690 c6         1 9UD      -0.035100
     31 C26          0.6320     3.1190    -2.1450 c3         1 9UD      -0.180100
     32 C3           5.3320     0.5310    -1.5780 cd         1 9UD       0.243900
     33 F            3.3480    -1.5650    -2.4100 f          1 9UD      -0.125000
     34 F1           1.3170    -0.9070    -2.7440 f          1 9UD      -0.125000
     35 N5          -1.6700     2.8420    -1.0990 n          1 9UD      -0.416800
     36 O1          -1.4210     3.7130    -3.2080 o          1 9UD      -0.609100
     37 H1           4.0760     0.3150     2.2590 ha         1 9UD       0.112000
     38 H2           0.2060    -0.6830    -0.6590 ha         1 9UD       0.139000
     39 H3           2.8290     0.3520    -2.6410 h2         1 9UD       0.069700
     40 H4          -1.6260    -0.4050     3.6830 h1         1 9UD       0.051700
     41 H5          -0.3640    -1.6500     3.6130 h1         1 9UD       0.051700
     42 H6           0.0730     1.3820     3.9080 hc         1 9UD       0.052700
     43 H7           0.2510     0.1950     5.1990 hc         1 9UD       0.052700
     44 H8           2.1910    -0.8150     4.1550 hc         1 9UD       0.050700
     45 H9           2.4480     0.9230     4.0640 hc         1 9UD       0.050700
     46 H10         -5.2810    -0.7490    -0.7970 h1         1 9UD       0.059700
     47 H11          8.8210     1.5220    -0.1270 h1         1 9UD       0.057367
     48 H12          8.5940     0.1960     1.0510 h1         1 9UD       0.057367
     49 H13          9.0350    -0.1790    -0.6410 h1         1 9UD       0.057367
     50 H14          6.1320    -0.0620     1.5580 h4         1 9UD       0.157000
     51 H15         -5.2060    -1.8420     2.0730 hc         1 9UD       0.069950
     52 H16         -5.9650    -0.3410     1.5430 hc         1 9UD       0.069950
     53 H17         -7.5840    -1.6110     0.1200 h1         1 9UD       0.047700
     54 H18         -7.6290    -2.2390     1.7860 h1         1 9UD       0.047700
     55 H19         -5.7040    -4.5020    -1.1190 h1         1 9UD       0.047700
     56 H20         -6.4390    -2.9540    -1.6050 h1         1 9UD       0.047700
     57 H21         -3.9500    -2.7090    -1.4870 hc         1 9UD       0.069950
     58 H22         -3.9390    -3.3410     0.1590 hc         1 9UD       0.069950
     59 H23         -1.2070     2.7990     0.9740 h1         1 9UD       0.059200
     60 H24         -0.0520     1.9100    -0.0180 h1         1 9UD       0.059200
     61 H25         -3.5210     3.5750    -1.9220 h1         1 9UD       0.065200
     62 H26         -3.4720     3.4400    -0.1630 h1         1 9UD       0.065200
     63 H27         -3.7640     1.1630    -2.1950 hc         1 9UD       0.064700
     64 H28         -4.9030     1.6370    -0.9330 hc         1 9UD       0.064700
     65 H29          1.0000     3.5640    -1.2140 hc         1 9UD       0.064033
     66 H30          0.8950     2.0620    -2.0360 hc         1 9UD       0.064033
     67 H31          1.1230     3.5530    -3.0230 hc         1 9UD       0.064033
     68 H32          4.7690     0.7250    -2.4790 h4         1 9UD       0.038100
     69 C25         -0.8920     3.2450    -2.2080 c          1 9UD       0.611100
@<TRIPOS>BOND
     1     1     2 ar  
     2     1     8 ar  
     3     1    25 1   
     4     2     3 ar  
     5     2    37 1   
     6     3     5 ar  
     7     3    13 1   
     8     4    17 1   
     9     4    32 2   
    10     5     6 ar  
    11     5     7 1   
    12     6     8 ar  
    13     6    38 1   
    14     7    10 1   
    15     7    14 1   
    16     8     9 1   
    17     9    33 1   
    18     9    34 1   
    19     9    39 1   
    20    10    11 1   
    21    10    40 1   
    22    10    41 1   
    23    11    13 1   
    24    11    42 1   
    25    11    43 1   
    26    12    14 2   
    27    12    16 1   
    28    13    44 1   
    29    13    45 1   
    30    14    27 1   
    31    15    16 1   
    32    15    21 1   
    33    15    24 1   
    34    15    46 1   
    35    16    26 1   
    36    17    18 1   
    37    17    20 1   
    38    18    47 1   
    39    18    48 1   
    40    18    49 1   
    41    19    22 1   
    42    19    23 1   
    43    20    25 2   
    44    20    50 1   
    45    21    22 1   
    46    21    51 1   
    47    21    52 1   
    48    22    53 1   
    49    22    54 1   
    50    23    24 1   
    51    23    55 1   
    52    23    56 1   
    53    24    57 1   
    54    24    58 1   
    55    25    32 1   
    56    26    27 2   
    57    26    30 1   
    58    27    28 1   
    59    28    35 1   
    60    28    59 1   
    61    28    60 1   
    62    29    30 1   
    63    29    35 1   
    64    29    61 1   
    65    29    62 1   
    66    30    63 1   
    67    30    64 1   
    68    31    65 1   
    69    31    66 1   
    70    31    67 1   
    71    31    69 1   
    72    32    68 1   
    73    35    69 1   
    74    36    69 2   
@<TRIPOS>SUBSTRUCTURE
     1 9UD         1 TEMP              0 ****  ****    0 ROOT
