@<TRIPOS>MOLECULE
9UE
   92    95     1     0     0
SMALL
No Charge or Current Charge


@<TRIPOS>ATOM
      1 C35         -5.2310     1.2890    -1.7780 c3         1 9UE      -0.120100
      2 C34         -2.9950     4.2050     0.4970 ca         1 9UE      -0.050500
      3 C33         -3.2610     5.4830    -0.0270 ca         1 9UE      -0.174000
      4 C32         -2.2460     6.4480    -0.0810 ca         1 9UE       0.143100
      5 C31         -0.9650     6.1410     0.3940 ca         1 9UE      -0.174000
      6 C30         -0.6950     4.8660     0.9180 ca         1 9UE      -0.050500
      7 C29         -1.7010     3.8760     0.9680 ca         1 9UE      -0.107300
      8 C28          4.8680     0.8880    -0.5990 cc         1 9UE      -0.044400
      9 C27          5.3690    -1.3300    -0.4390 ca         1 9UE      -0.037200
     10 C26          5.9850    -2.5840    -0.5280 ca         1 9UE      -0.130000
     11 C25          5.2950    -3.6970    -0.0000 ca         1 9UE      -0.083000
     12 C24          4.0210    -3.5330     0.5980 ca         1 9UE      -0.152000
     13 O2          -0.4250     2.3890    -1.2250 o          1 9UE      -0.552100
     14 C1          -4.9370    -2.0270     0.4510 c3         1 9UE      -0.017500
     15 O1          -2.4860     0.4540    -0.4970 o          1 9UE      -0.434000
     16 C2          -5.0400    -1.1160    -0.8030 c3         1 9UE      -0.102400
     17 C3          -5.3410     0.3890    -0.5280 c3         1 9UE       0.191300
     18 O3          -0.0100    -1.1330     0.3950 o          1 9UE      -0.596100
     19 C4          -3.1220     0.9110     0.4380 c          1 9UE       0.592100
     20 C5          -2.4980     1.4730     1.7210 c3         1 9UE      -0.160400
     21 O4          -0.9370    -5.1820    -2.2550 o          1 9UE      -0.583100
     22 C6          -1.3460     2.5010     1.5620 c3         1 9UE       0.204000
     23 C23          3.4260    -2.2560     0.6740 ca         1 9UE      -0.062000
     24 C22          4.1380    -1.1730     0.1370 ca         1 9UE      -0.097800
     25 C21          3.8150     0.2340     0.0310 cd         1 9UE      -0.084400
     26 C20          2.5210     0.8720     0.4740 c3         1 9UE      -0.021200
     27 C19          2.0290    -0.6430    -2.5550 c3         1 9UE       0.100300
     28 C18         -1.1590    -1.9900    -2.7400 c3         1 9UE      -0.089100
     29 C17         -0.5770    -5.6600     1.2450 c3         1 9UE      -0.096100
     30 N3           5.8260    -0.1010    -0.8820 na         1 9UE      -0.210700
     31 C16         -3.0730    -3.7550     2.2570 c3         1 9UE      -0.057900
     32 C15         -4.3450    -3.3840     0.0930 c2         1 9UE      -0.203200
     33 N2          -0.7960    -3.4730    -0.7590 ns         1 9UE      -0.498900
     34 C14         -3.5210    -4.1370     0.8500 c2         1 9UE      -0.107400
     35 C13         -3.0550    -5.5220     0.4010 c3         1 9UE      -0.016200
     36 C12         -1.5500    -5.6900     0.0350 c3         1 9UE      -0.139700
     37 N1           1.2120    -0.3040    -1.3650 n          1 9UE      -0.391800
     38 C11         -1.1070    -4.7660    -1.1170 c          1 9UE       0.619100
     39 C10         -0.1790    -2.4560    -1.6370 c3         1 9UE       0.057700
     40 C9           0.3430    -1.2580    -0.7740 c          1 9UE       0.586100
     41 C8           1.4930     1.0030    -0.6870 c3         1 9UE       0.028700
     42 C7           0.2050     1.8130    -0.3480 c          1 9UE       0.618100
     43 O5          -2.5000     7.6880    -0.5870 oh         1 9UE      -0.536100
     44 N           -0.1380     1.8930     0.9910 ns         1 9UE      -0.507900
     45 O           -4.4970     0.9230     0.5230 os         1 9UE      -0.474100
     46 C           -6.2970    -2.1950     1.1640 c3         1 9UE      -0.085100
     47 H1          -5.9920     1.0050    -2.5150 hc         1 9UE       0.048367
     48 H2          -5.3950     2.3400    -1.5110 hc         1 9UE       0.048367
     49 H3          -4.2500     1.2010    -2.2590 hc         1 9UE       0.048367
     50 H4          -3.8080     3.4890     0.5340 ha         1 9UE       0.110000
     51 H5          -4.2610     5.7140    -0.3860 ha         1 9UE       0.118000
     52 H6          -0.1790     6.8910     0.3580 ha         1 9UE       0.118000
     53 H7           0.3050     4.6450     1.2860 ha         1 9UE       0.110000
     54 H8           6.9630    -2.7000    -0.9900 ha         1 9UE       0.118000
     55 H9           5.7440    -4.6870    -0.0530 ha         1 9UE       0.114000
     56 H10          3.4980    -4.3970     1.0020 ha         1 9UE       0.111000
     57 H11         -4.2620    -1.5360     1.1590 hc         1 9UE       0.056700
     58 H12         -4.1180    -1.2040    -1.3830 hc         1 9UE       0.066700
     59 H13         -5.8270    -1.5070    -1.4590 hc         1 9UE       0.066700
     60 H14         -6.3830     0.4510    -0.1880 h1         1 9UE       0.061700
     61 H15         -3.2870     1.8980     2.3510 hc         1 9UE       0.071200
     62 H16         -2.1090     0.6130     2.2760 hc         1 9UE       0.071200
     63 H17         -1.0580     2.7320     2.5970 h1         1 9UE       0.039700
     64 H18          2.4500    -2.1200     1.1330 ha         1 9UE       0.129000
     65 H19          2.0890     0.2870     1.2940 hc         1 9UE       0.063700
     66 H20          2.7260     1.8680     0.8850 hc         1 9UE       0.063700
     67 H21          2.8530     0.0720    -2.6730 h1         1 9UE       0.040700
     68 H22          2.4650    -1.6440    -2.4390 h1         1 9UE       0.040700
     69 H23          1.4130    -0.6140    -3.4610 h1         1 9UE       0.040700
     70 H24         -0.7140    -1.2160    -3.3740 hc         1 9UE       0.056033
     71 H25         -1.4510    -2.8240    -3.3880 hc         1 9UE       0.056033
     72 H26         -2.0670    -1.5730    -2.2940 hc         1 9UE       0.056033
     73 H27         -0.9270    -6.3290     2.0410 hc         1 9UE       0.037367
     74 H28          0.4190    -6.0010     0.9350 hc         1 9UE       0.037367
     75 H29         -0.4610    -4.6570     1.6650 hc         1 9UE       0.037367
     76 H30          6.7120     0.0590    -1.3490 hn         1 9UE       0.364000
     77 H31         -3.7760    -3.0710     2.7440 hc         1 9UE       0.040700
     78 H32         -2.9960    -4.6320     2.9100 hc         1 9UE       0.040700
     79 H33         -2.1000    -3.2530     2.2420 hc         1 9UE       0.040700
     80 H34         -4.6580    -3.7510    -0.8850 ha         1 9UE       0.165000
     81 H35         -0.9650    -3.2180     0.2080 hn         1 9UE       0.308500
     82 H36         -3.3160    -6.2640     1.1660 hc         1 9UE       0.046700
     83 H37         -3.6330    -5.8220    -0.4830 hc         1 9UE       0.046700
     84 H38         -1.4800    -6.7060    -0.3710 hc         1 9UE       0.062700
     85 H39          0.6910    -2.9210    -2.1170 h1         1 9UE       0.051700
     86 H40          1.9870     1.6400    -1.4310 h1         1 9UE       0.069700
     87 H41         -3.4400     7.7220    -0.8670 ho         1 9UE       0.463000
     88 H42          0.4450     1.3590     1.6220 hn         1 9UE       0.307500
     89 H43         -7.0350    -2.6510     0.4930 hc         1 9UE       0.031033
     90 H44         -6.1930    -2.8410     2.0440 hc         1 9UE       0.031033
     91 H45         -6.6860    -1.2280     1.5010 hc         1 9UE       0.031033
     92 Br           5.0180     2.7110    -1.0590 br         1 9UE      -0.029700
@<TRIPOS>BOND
     1     1    17 1   
     2     1    47 1   
     3     1    48 1   
     4     1    49 1   
     5     2     3 ar  
     6     2     7 ar  
     7     2    50 1   
     8     3     4 ar  
     9     3    51 1   
    10     4     5 ar  
    11     4    43 1   
    12     5     6 ar  
    13     5    52 1   
    14     6     7 ar  
    15     6    53 1   
    16     7    22 1   
    17     8    25 2   
    18     8    30 1   
    19     8    92 1   
    20     9    10 ar  
    21     9    24 ar  
    22     9    30 1   
    23    10    11 ar  
    24    10    54 1   
    25    11    12 ar  
    26    11    55 1   
    27    12    23 ar  
    28    12    56 1   
    29    13    42 2   
    30    14    16 1   
    31    14    32 1   
    32    14    46 1   
    33    14    57 1   
    34    15    19 2   
    35    16    17 1   
    36    16    58 1   
    37    16    59 1   
    38    17    45 1   
    39    17    60 1   
    40    18    40 2   
    41    19    20 1   
    42    19    45 1   
    43    20    22 1   
    44    20    61 1   
    45    20    62 1   
    46    21    38 2   
    47    22    44 1   
    48    22    63 1   
    49    23    24 ar  
    50    23    64 1   
    51    24    25 1   
    52    25    26 1   
    53    26    41 1   
    54    26    65 1   
    55    26    66 1   
    56    27    37 1   
    57    27    67 1   
    58    27    68 1   
    59    27    69 1   
    60    28    39 1   
    61    28    70 1   
    62    28    71 1   
    63    28    72 1   
    64    29    36 1   
    65    29    73 1   
    66    29    74 1   
    67    29    75 1   
    68    30    76 1   
    69    31    34 1   
    70    31    77 1   
    71    31    78 1   
    72    31    79 1   
    73    32    34 2   
    74    32    80 1   
    75    33    38 1   
    76    33    39 1   
    77    33    81 1   
    78    34    35 1   
    79    35    36 1   
    80    35    82 1   
    81    35    83 1   
    82    36    38 1   
    83    36    84 1   
    84    37    40 1   
    85    37    41 1   
    86    39    40 1   
    87    39    85 1   
    88    41    42 1   
    89    41    86 1   
    90    42    44 1   
    91    43    87 1   
    92    44    88 1   
    93    46    89 1   
    94    46    90 1   
    95    46    91 1   
@<TRIPOS>SUBSTRUCTURE
     1 9UE         1 TEMP              0 ****  ****    0 ROOT
