@<TRIPOS>MOLECULE
9UE
   92    95     1     0     0
SMALL
abcg2


@<TRIPOS>ATOM
      1 C35         -6.1020     0.9890    -0.9460 c3         1 9UE      -0.120100
      2 C34         -3.0280     4.3320    -0.0340 ca         1 9UE      -0.050500
      3 C33         -3.2100     5.4620    -0.8250 ca         1 9UE      -0.174000
      4 C32         -2.1200     6.2360    -1.1970 ca         1 9UE       0.143100
      5 C31         -0.8490     5.8720    -0.7550 ca         1 9UE      -0.174000
      6 C30         -0.6890     4.7480     0.0330 ca         1 9UE      -0.050500
      7 C29         -1.7690     3.9450     0.4000 ca         1 9UE      -0.107300
      8 C28          4.5580     0.3520     0.5410 cc         1 9UE      -0.044400
      9 C27          4.9360    -1.8210     0.3440 ca         1 9UE      -0.037200
     10 C26          5.4950    -3.0840     0.1620 ca         1 9UE      -0.130000
     11 C25          4.6570    -4.1730     0.2960 ca         1 9UE      -0.083000
     12 C24          3.2980    -4.0120     0.6140 ca         1 9UE      -0.152000
     13 O2          -0.4840     1.9670    -1.3130 o          1 9UE      -0.552100
     14 C1          -4.8800    -2.1160     1.1360 c3         1 9UE      -0.017500
     15 O1          -3.1150     1.0180    -0.4490 o          1 9UE      -0.434000
     16 C2          -5.2150    -1.2150    -0.0610 c3         1 9UE      -0.102400
     17 C3          -5.6790     0.1940     0.2790 c3         1 9UE       0.191300
     18 O3          -0.2310    -1.1520    -0.2050 o          1 9UE      -0.596100
     19 C4          -3.5280     1.2540     0.6510 c          1 9UE       0.592100
     20 C5          -2.7730     1.9800     1.7380 c3         1 9UE      -0.160400
     21 O4          -2.1470    -3.4360    -2.0080 o          1 9UE      -0.583100
     22 C6          -1.5350     2.7800     1.3370 c3         1 9UE       0.204000
     23 C23          2.7480    -2.7580     0.7880 ca         1 9UE      -0.062000
     24 C22          3.5700    -1.6330     0.6450 ca         1 9UE      -0.097800
     25 C21          3.3410    -0.2240     0.7660 cd         1 9UE      -0.084400
     26 C20          2.0370     0.4630     1.0020 c3         1 9UE      -0.021200
     27 C19          2.2970     0.0510    -2.4550 c3         1 9UE       0.100300
     28 C18         -0.1760    -1.8650    -3.4620 c3         1 9UE      -0.089100
     29 C17         -0.2110    -5.5720     0.3250 c3         1 9UE      -0.096100
     30 N3           5.5160    -0.5870     0.2840 na         1 9UE      -0.210700
     31 C16         -2.1390    -3.3920     1.8240 c3         1 9UE      -0.057900
     32 C15         -4.3130    -3.3920     0.5900 c2         1 9UE      -0.203200
     33 N2           0.0770    -3.4910    -1.5610 ns         1 9UE      -0.498900
     34 C14         -3.1280    -3.9500     0.8420 c2         1 9UE      -0.107400
     35 C13         -2.7380    -5.2080     0.1100 c3         1 9UE      -0.016200
     36 C12         -1.3680    -5.2070    -0.6060 c3         1 9UE      -0.139700
     37 N1           1.4050    -0.1120    -1.3270 n          1 9UE      -0.391800
     38 C11         -1.1920    -3.9360    -1.4390 c          1 9UE       0.619100
     39 C10          0.5470    -2.2740    -2.1790 c3         1 9UE       0.057700
     40 C9           0.5310    -1.1300    -1.1550 c          1 9UE       0.586100
     41 C8           1.4090     0.9340    -0.3220 c3         1 9UE       0.028700
     42 C7           0.0390     1.6340    -0.2700 c          1 9UE       0.618100
     43 O5          -2.2310     7.3390    -1.9680 oh         1 9UE      -0.536100
     44 N           -0.4020     1.9520     0.9600 ns         1 9UE      -0.507900
     45 O           -4.7330     0.9070     1.1050 os         1 9UE      -0.474100
     46 C           -6.0970    -2.3990     2.0170 c3         1 9UE      -0.085100
     47 H1          -7.0030     0.5330    -1.3600 hc         1 9UE       0.048367
     48 H2          -6.3520     2.0170    -0.6810 hc         1 9UE       0.048367
     49 H3          -5.3450     1.0030    -1.7260 hc         1 9UE       0.048367
     50 H4          -3.9130     3.7740     0.2420 ha         1 9UE       0.110000
     51 H5          -4.2100     5.7330    -1.1440 ha         1 9UE       0.118000
     52 H6           0.0090     6.4760    -1.0260 ha         1 9UE       0.118000
     53 H7           0.3080     4.4930     0.3720 ha         1 9UE       0.110000
     54 H8           6.5450    -3.2080    -0.0710 ha         1 9UE       0.118000
     55 H9           5.0560    -5.1700     0.1620 ha         1 9UE       0.114000
     56 H10          2.6790    -4.8920     0.7330 ha         1 9UE       0.111000
     57 H11         -4.1250    -1.6120     1.7450 hc         1 9UE       0.056700
     58 H12         -4.3520    -1.1790    -0.7280 hc         1 9UE       0.066700
     59 H13         -6.0270    -1.6810    -0.6310 hc         1 9UE       0.066700
     60 H14         -6.5470     0.1300     0.9390 h1         1 9UE       0.061700
     61 H15         -3.4580     2.6390     2.2750 hc         1 9UE       0.071200
     62 H16         -2.4670     1.2310     2.4750 hc         1 9UE       0.071200
     63 H17         -1.2150     3.2320     2.2820 h1         1 9UE       0.039700
     64 H18          1.7020    -2.6460     1.0450 ha         1 9UE       0.129000
     65 H19          1.3640    -0.2120     1.5310 hc         1 9UE       0.063700
     66 H20          2.1910     1.3290     1.6500 hc         1 9UE       0.063700
     67 H21          3.2050     0.5520    -2.1260 h1         1 9UE       0.040700
     68 H22          2.6070    -0.9030    -2.8730 h1         1 9UE       0.040700
     69 H23          1.8480     0.6510    -3.2490 h1         1 9UE       0.040700
     70 H24          0.3990    -1.0940    -3.9720 hc         1 9UE       0.056033
     71 H25         -0.2560    -2.7140    -4.1400 hc         1 9UE       0.056033
     72 H26         -1.1700    -1.4780    -3.2660 hc         1 9UE       0.056033
     73 H27         -0.4640    -6.4730     0.8830 hc         1 9UE       0.037367
     74 H28          0.7040    -5.8050    -0.2220 hc         1 9UE       0.037367
     75 H29          0.0080    -4.7930     1.0550 hc         1 9UE       0.037367
     76 H30          6.4910    -0.4010     0.1100 hn         1 9UE       0.364000
     77 H31         -2.5890    -2.6690     2.5020 hc         1 9UE       0.040700
     78 H32         -1.7030    -4.1850     2.4360 hc         1 9UE       0.040700
     79 H33         -1.3250    -2.8810     1.3050 hc         1 9UE       0.040700
     80 H34         -4.9540    -3.8840    -0.1410 ha         1 9UE       0.165000
     81 H35          0.7800    -3.9600    -1.0160 hn         1 9UE       0.308500
     82 H36         -2.7230    -6.0500     0.8120 hc         1 9UE       0.046700
     83 H37         -3.5140    -5.4360    -0.6220 hc         1 9UE       0.046700
     84 H38         -1.4270    -6.0120    -1.3480 hc         1 9UE       0.062700
     85 H39          1.5830    -2.4920    -2.4470 h1         1 9UE       0.051700
     86 H40          2.0660     1.7190    -0.7120 h1         1 9UE       0.069700
     87 H41         -3.1520     7.4890    -2.2060 ho         1 9UE       0.463000
     88 H42          0.0800     1.5460     1.7430 hn         1 9UE       0.307500
     89 H43         -6.8800    -2.9070     1.4480 hc         1 9UE       0.031033
     90 H44         -5.8250    -3.0440     2.8540 hc         1 9UE       0.031033
     91 H45         -6.5290    -1.4890     2.4350 hc         1 9UE       0.031033
     92 BR           4.9840     2.1590     0.5380 br         1 9UE      -0.029700
@<TRIPOS>BOND
     1     1    17 1   
     2     1    47 1   
     3     1    48 1   
     4     1    49 1   
     5     2     3 ar  
     6     2     7 ar  
     7     2    50 1   
     8     3     4 ar  
     9     3    51 1   
    10     4     5 ar  
    11     4    43 1   
    12     5     6 ar  
    13     5    52 1   
    14     6     7 ar  
    15     6    53 1   
    16     7    22 1   
    17     8    25 2   
    18     8    30 1   
    19     8    92 1   
    20     9    10 ar  
    21     9    24 ar  
    22     9    30 1   
    23    10    11 ar  
    24    10    54 1   
    25    11    12 ar  
    26    11    55 1   
    27    12    23 ar  
    28    12    56 1   
    29    13    42 2   
    30    14    16 1   
    31    14    32 1   
    32    14    46 1   
    33    14    57 1   
    34    15    19 2   
    35    16    17 1   
    36    16    58 1   
    37    16    59 1   
    38    17    45 1   
    39    17    60 1   
    40    18    40 2   
    41    19    20 1   
    42    19    45 1   
    43    20    22 1   
    44    20    61 1   
    45    20    62 1   
    46    21    38 2   
    47    22    44 1   
    48    22    63 1   
    49    23    24 ar  
    50    23    64 1   
    51    24    25 1   
    52    25    26 1   
    53    26    41 1   
    54    26    65 1   
    55    26    66 1   
    56    27    37 1   
    57    27    67 1   
    58    27    68 1   
    59    27    69 1   
    60    28    39 1   
    61    28    70 1   
    62    28    71 1   
    63    28    72 1   
    64    29    36 1   
    65    29    73 1   
    66    29    74 1   
    67    29    75 1   
    68    30    76 1   
    69    31    34 1   
    70    31    77 1   
    71    31    78 1   
    72    31    79 1   
    73    32    34 2   
    74    32    80 1   
    75    33    38 1   
    76    33    39 1   
    77    33    81 1   
    78    34    35 1   
    79    35    36 1   
    80    35    82 1   
    81    35    83 1   
    82    36    38 1   
    83    36    84 1   
    84    37    40 1   
    85    37    41 1   
    86    39    40 1   
    87    39    85 1   
    88    41    42 1   
    89    41    86 1   
    90    42    44 1   
    91    43    87 1   
    92    44    88 1   
    93    46    89 1   
    94    46    90 1   
    95    46    91 1   
@<TRIPOS>SUBSTRUCTURE
     1 9UE         1 TEMP              0 ****  ****    0 ROOT
