@<TRIPOS>MOLECULE
9UF
   40    40     1     0     0
SMALL
bcc


@<TRIPOS>ATOM
      1 C15        263.5100    38.9060   140.4410 ca         1 9UF      -0.296600
      2 C20        263.4550    38.7730   138.0420 ca         1 9UF      -0.325300
      3 C21        263.3450    38.1630   139.2700 ca         1 9UF      -0.016000
      4 C          256.2770    41.2040   147.0200 c          1 9UF       0.903600
      5 CA         257.1660    40.6020   145.9020 c3         1 9UF       0.010500
      6 CB         256.9730    39.0810   145.8630 c3         1 9UF      -0.054400
      7 CG         257.8590    38.3500   144.8600 c3         1 9UF      -0.063400
      8 CD         257.6670    38.8080   143.4190 c3         1 9UF      -0.092400
      9 CE         258.6330    38.1620   142.4390 c3         1 9UF       0.120000
     10 C11        261.0480    38.0930   142.0680 c          1 9UF       0.749100
     11 C14        263.3940    38.3030   141.8060 c3         1 9UF       0.225700
     12 C16        263.7860    40.2540   140.2800 ca         1 9UF       0.471200
     13 C18        263.7260    40.1520   137.9990 ca         1 9UF       0.665200
     14 N          258.5830    40.9240   145.9780 n8         1 9UF      -0.895800
     15 NZ         259.9870    38.6050   142.7070 ns         1 9UF      -0.558900
     16 N17        263.8920    40.8700   139.1090 nb         1 9UF      -0.752000
     17 N19        263.7930    40.8180   136.8130 nv         1 9UF      -0.950500
     18 O12        260.9990    37.2030   141.2420 o          1 9UF      -0.621000
     19 O13        262.1840    38.6800   142.4720 os         1 9UF      -0.434900
     20 H20        263.3350    38.2090   137.1260 ha         1 9UF       0.135000
     21 H21        263.1360    37.1020   139.3270 ha         1 9UF       0.147000
     22 HA         256.7970    41.0100   144.9530 h1         1 9UF       0.035700
     23 HB2        255.9220    38.8700   145.6550 hc         1 9UF       0.040700
     24 HB3        257.1740    38.6710   146.8610 hc         1 9UF       0.040700
     25 HG2        257.6500    37.2770   144.9180 hc         1 9UF       0.025700
     26 HG3        258.9040    38.4700   145.1560 hc         1 9UF       0.025700
     27 HD2        257.7690    39.8940   143.3460 hc         1 9UF       0.053200
     28 HD3        256.6490    38.5780   143.0930 hc         1 9UF       0.053200
     29 HE2        258.3450    38.4170   141.4150 h1         1 9UF       0.037200
     30 HE3        258.5780    37.0740   142.5250 h1         1 9UF       0.037200
     31 H14        263.4880    37.2160   141.7600 h1         1 9UF       0.058200
     32 H13        264.1810    38.6760   142.4600 h1         1 9UF       0.058200
     33 H16        263.9370    40.8810   141.1550 h4         1 9UF       0.020100
     34 H          258.6850    41.9320   145.9980 hn         1 9UF       0.326800
     35 H2         258.9330    40.6200   146.8800 hn         1 9UF       0.326800
     36 HZ         260.1200    39.3910   143.3250 hn         1 9UF       0.347500
     37 H19        264.2340    41.7230   136.8270 hn         1 9UF       0.413300
     38 H18        263.9600    40.2830   135.9780 hn         1 9UF       0.413300
     39 OXT        256.8490    41.7720   147.9710 o          1 9UF      -0.839800
     40 O          255.0450    41.0570   146.8700 o          1 9UF      -0.839800
@<TRIPOS>BOND
     1     1     3 ar  
     2     1    11 1   
     3     1    12 ar  
     4     2     3 ar  
     5     2    13 ar  
     6     2    20 1   
     7     3    21 1   
     8     4     5 1   
     9     4    39 1   
    10     4    40 1   
    11     5     6 1   
    12     5    14 1   
    13     5    22 1   
    14     6     7 1   
    15     6    23 1   
    16     6    24 1   
    17     7     8 1   
    18     7    25 1   
    19     7    26 1   
    20     8     9 1   
    21     8    27 1   
    22     8    28 1   
    23     9    15 1   
    24     9    29 1   
    25     9    30 1   
    26    10    15 1   
    27    10    18 2   
    28    10    19 1   
    29    11    19 1   
    30    11    31 1   
    31    11    32 1   
    32    12    16 ar  
    33    12    33 1   
    34    13    16 ar  
    35    13    17 1   
    36    14    34 1   
    37    14    35 1   
    38    15    36 1   
    39    17    37 1   
    40    17    38 1   
@<TRIPOS>SUBSTRUCTURE
     1 9UF         1 TEMP              0 ****  ****    0 ROOT
