@<TRIPOS>MOLECULE
9UG
   32    33     1     0     0
SMALL
abcg2


@<TRIPOS>ATOM
      1 C4          -0.8970     1.6080     0.4110 ca         1 9UG      -0.069000
      2 C5          -0.3490     0.3500     0.1640 ca         1 9UG      -0.107000
      3 C6          -1.2180    -0.6980    -0.1540 ca         1 9UG       0.109100
      4 C7          -2.5890    -0.4700    -0.2430 ca         1 9UG      -0.130000
      5 C9           0.6060    -2.2070    -0.3850 c6         1 9UG       0.149300
      6 C10          1.3040    -1.3130     0.6280 c6         1 9UG       0.066000
      7 C3          -2.2580     1.8290     0.3050 ca         1 9UG      -0.130000
      8 C15          4.3170     1.5290    -0.3680 c3         1 9UG       0.100300
      9 C16          0.8220    -3.6760    -0.1040 c3         1 9UG      -0.093100
     10 C2          -3.1280     0.7880    -0.0230 ca         1 9UG      -0.056300
     11 N11          1.0230     0.0770     0.3170 n          1 9UG      -0.238400
     12 N14          3.2490     0.6880     0.1200 ns         1 9UG      -0.513900
     13 O13          1.6610     1.8430    -0.9890 o          1 9UG      -0.608100
     14 O8          -0.7980    -1.9630    -0.3660 os         1 9UG      -0.344100
     15 H1          -0.2490     2.4270     0.6890 ha         1 9UG       0.126000
     16 H2          -3.2340    -1.3040    -0.4930 ha         1 9UG       0.124000
     17 H3           0.9930    -1.9610    -1.3820 h1         1 9UG       0.058700
     18 H4           0.9660    -1.5490     1.6410 h1         1 9UG       0.063200
     19 H5           2.3710    -1.5150     0.5840 h1         1 9UG       0.063200
     20 H6          -2.6490     2.8210     0.4950 ha         1 9UG       0.115000
     21 H7          -5.0780     0.8950     0.8790 hc         1 9UG       0.042033
     22 H8          -4.8410     2.0220    -0.4460 hc         1 9UG       0.042033
     23 H9          -5.0900     0.3080    -0.7760 hc         1 9UG       0.042033
     24 H10          5.2560     1.1360     0.0120 h1         1 9UG       0.041033
     25 H11          4.3600     1.5150    -1.4560 h1         1 9UG       0.041033
     26 H12          4.2210     2.5660    -0.0430 h1         1 9UG       0.041033
     27 H13          0.2810    -4.2950    -0.8200 hc         1 9UG       0.049367
     28 H14          1.8810    -3.9170    -0.1930 hc         1 9UG       0.049367
     29 H15          0.4940    -3.9410     0.9020 hc         1 9UG       0.049367
     30 H16          3.4370     0.1540     0.9520 hn         1 9UG       0.311500
     31 C12          1.9670     0.9320    -0.2350 c          1 9UG       0.649100
     32 C1          -4.6100     1.0150    -0.1000 c3         1 9UG      -0.044800
@<TRIPOS>BOND
     1     1     2 ar  
     2     1     7 ar  
     3     1    15 1   
     4     2     3 ar  
     5     2    11 1   
     6     3     4 ar  
     7     3    14 1   
     8     4    10 ar  
     9     4    16 1   
    10     5     6 1   
    11     5     9 1   
    12     5    14 1   
    13     5    17 1   
    14     6    11 1   
    15     6    18 1   
    16     6    19 1   
    17     7    10 ar  
    18     7    20 1   
    19     8    12 1   
    20     8    24 1   
    21     8    25 1   
    22     8    26 1   
    23     9    27 1   
    24     9    28 1   
    25     9    29 1   
    26    10    32 1   
    27    11    31 1   
    28    12    30 1   
    29    12    31 1   
    30    13    31 2   
    31    21    32 1   
    32    22    32 1   
    33    23    32 1   
@<TRIPOS>SUBSTRUCTURE
     1 9UG         1 TEMP              0 ****  ****    0 ROOT
