@<TRIPOS>MOLECULE
9UG
   32    33     1     0     0
SMALL
No Charge or Current Charge


@<TRIPOS>ATOM
      1 C4          -0.9490     1.6510     0.2830 ca         1 9UG      -0.069000
      2 C5          -0.4040     0.3480     0.1840 ca         1 9UG      -0.107000
      3 C6          -1.2990    -0.7270    -0.0670 ca         1 9UG       0.109100
      4 C7          -2.6840    -0.5090    -0.1420 ca         1 9UG      -0.130000
      5 C9           0.5580    -2.2680    -0.3770 c6         1 9UG       0.149300
      6 C10          1.4070    -1.3060     0.4810 c6         1 9UG       0.066000
      7 C3          -2.3360     1.8620     0.1970 ca         1 9UG      -0.130000
      8 C15          4.4830     1.5880    -0.2320 c3         1 9UG       0.100300
      9 C16          0.8170    -3.7580    -0.0520 c3         1 9UG      -0.093100
     10 C2          -3.2120     0.7850    -0.0140 ca         1 9UG      -0.056300
     11 N11          1.0320     0.1020     0.1700 n          1 9UG      -0.238400
     12 N14          3.3340     0.7330     0.0760 ns         1 9UG      -0.513900
     13 O13          1.7590     2.1400    -0.7090 o          1 9UG      -0.608100
     14 O8          -0.8480    -2.0260    -0.1810 os         1 9UG      -0.344100
     15 H1          -0.3150     2.5130     0.4700 ha         1 9UG       0.126000
     16 H2          -3.3480    -1.3540    -0.3050 ha         1 9UG       0.124000
     17 H3           0.7910    -2.0920    -1.4370 h1         1 9UG       0.058700
     18 H4           1.2270    -1.5000     1.5480 h1         1 9UG       0.063200
     19 H5           2.4640    -1.5160     0.2750 h1         1 9UG       0.063200
     20 H6          -2.7300     2.8710     0.3000 ha         1 9UG       0.115000
     21 H7          -5.1750     0.9450     0.8930 hc         1 9UG       0.042033
     22 H8          -4.9420     2.0100    -0.5030 hc         1 9UG       0.042033
     23 H9          -5.1960     0.2780    -0.7480 hc         1 9UG       0.042033
     24 H10          5.4080     1.0850     0.0770 h1         1 9UG       0.041033
     25 H11          4.5200     1.7830    -1.3120 h1         1 9UG       0.041033
     26 H12          4.3910     2.5400     0.3080 h1         1 9UG       0.041033
     27 H13          0.2010    -4.4110    -0.6810 hc         1 9UG       0.049367
     28 H14          1.8670    -4.0220    -0.2280 hc         1 9UG       0.049367
     29 H15          0.5860    -3.9840     0.9960 hc         1 9UG       0.049367
     30 H16          3.5030    -0.1500     0.5400 hn         1 9UG       0.311500
     31 C12          2.0220     1.0670    -0.1870 c          1 9UG       0.649100
     32 C1          -4.7130     1.0170    -0.0980 c3         1 9UG      -0.044800
@<TRIPOS>BOND
     1     1     2 ar  
     2     1     7 ar  
     3     1    15 1   
     4     2     3 ar  
     5     2    11 1   
     6     3     4 ar  
     7     3    14 1   
     8     4    10 ar  
     9     4    16 1   
    10     5     6 1   
    11     5     9 1   
    12     5    14 1   
    13     5    17 1   
    14     6    11 1   
    15     6    18 1   
    16     6    19 1   
    17     7    10 ar  
    18     7    20 1   
    19     8    12 1   
    20     8    24 1   
    21     8    25 1   
    22     8    26 1   
    23     9    27 1   
    24     9    28 1   
    25     9    29 1   
    26    10    32 1   
    27    11    31 1   
    28    12    30 1   
    29    12    31 1   
    30    13    31 2   
    31    21    32 1   
    32    22    32 1   
    33    23    32 1   
@<TRIPOS>SUBSTRUCTURE
     1 9UG         1 TEMP              0 ****  ****    0 ROOT
