@<TRIPOS>MOLECULE
9UJ
   48    51     1     0     0
SMALL
No Charge or Current Charge


@<TRIPOS>ATOM
      1 C09        110.1000   115.2150   130.1810 c5         1 9UJ      -0.046300
      2 C10        109.9380   114.8110   132.6550 c5         1 9UJ       0.333000
      3 C11        111.2990   115.9620   130.8340 c5         1 9UJ       0.091600
      4 C12        111.0590   113.7980   133.0300 ca         1 9UJ      -0.054300
      5 C14        110.6200   114.2700   129.0470 c          1 9UJ       0.721000
      6 C15        107.1240   113.6560   132.2930 ca         1 9UJ      -0.117600
      7 C16        111.2450   112.4820   132.4930 ca         1 9UJ       0.179000
      8 C17        111.9690   114.2210   134.0310 ca         1 9UJ      -0.095000
      9 C18        107.6270   112.8640   133.3510 ca         1 9UJ      -0.078500
     10 C19        105.7310   113.8910   132.2650 ca         1 9UJ      -0.078500
     11 C20        105.3930   112.6210   134.3330 ca         1 9UJ      -0.011000
     12 C21        112.3160   111.6810   132.9330 ca         1 9UJ      -0.110000
     13 C22        113.0320   113.4110   134.4590 ca         1 9UJ      -0.125000
     14 C23        106.7760   112.3590   134.3500 ca         1 9UJ      -0.115000
     15 C24        104.8840   113.3890   133.2670 ca         1 9UJ      -0.115000
     16 C25        104.5030   112.0850   135.3810 cc         1 9UJ      -0.162000
     17 C26        113.2120   112.1410   133.9060 ca         1 9UJ      -0.106000
     18 C27        103.4470   112.7840   135.8990 cd         1 9UJ       0.201300
     19 C28        104.6140   110.9580   136.2360 cc         1 9UJ       0.301300
     20 C29        102.8880   114.1530   135.6070 c3         1 9UJ      -0.137400
     21 C30        105.6430   109.8720   136.0890 c3         1 9UJ      -0.135400
     22 N07        109.3470   114.5500   131.3220 n          1 9UJ      -0.344800
     23 N08        103.6760   110.9020   137.1660 nd         1 9UJ      -0.377300
     24 O03        109.9640   114.1730   128.0190 o          1 9UJ      -0.702000
     25 O04        107.4420   114.4000   130.0620 o          1 9UJ      -0.570100
     26 O05        111.7070   113.7180   129.1620 o          1 9UJ      -0.702000
     27 O06        102.9050   112.0920   136.9500 os         1 9UJ      -0.105700
     28 S02        110.5750   116.5370   132.4270 ss         1 9UJ      -0.573000
     29 Cl01       110.1780   111.7030   131.3140 cl         1 9UJ      -0.185000
     30 H1         109.4500   115.9560   129.7000 h1         1 9UJ       0.076700
     31 H2         109.1450   114.8250   133.4110 h2         1 9UJ       0.079700
     32 H3         112.1530   115.3010   131.0400 h1         1 9UJ       0.082200
     33 H4         111.6510   116.8040   130.2230 h1         1 9UJ       0.082200
     34 H5         111.8540   115.2000   134.4920 ha         1 9UJ       0.126000
     35 H6         108.6750   112.6080   133.4180 ha         1 9UJ       0.133000
     36 H7         105.2920   114.4760   131.4590 ha         1 9UJ       0.133000
     37 H8         112.4450   110.6850   132.5180 ha         1 9UJ       0.121000
     38 H9         113.7160   113.7720   135.2250 ha         1 9UJ       0.103000
     39 H10        107.2190   111.7850   135.1560 ha         1 9UJ       0.107500
     40 H11        103.8180   113.5750   133.1810 ha         1 9UJ       0.107500
     41 H12        114.0340   111.5090   134.2370 ha         1 9UJ       0.102000
     42 H13        102.3630   114.5550   136.4810 hc         1 9UJ       0.063033
     43 H14        103.6830   114.8620   135.3490 hc         1 9UJ       0.063033
     44 H15        102.1720   114.1170   134.7790 hc         1 9UJ       0.063033
     45 H16        105.2600   108.9170   136.4670 hc         1 9UJ       0.058700
     46 H17        105.9150   109.7230   135.0380 hc         1 9UJ       0.058700
     47 H18        106.5490   110.1150   136.6560 hc         1 9UJ       0.058700
     48 C13        107.9690   114.2340   131.1560 c          1 9UJ       0.601700
@<TRIPOS>BOND
     1     1     3 1   
     2     1     5 1   
     3     1    22 1   
     4     1    30 1   
     5     2     4 1   
     6     2    22 1   
     7     2    28 1   
     8     2    31 1   
     9     3    28 1   
    10     3    32 1   
    11     3    33 1   
    12     4     7 ar  
    13     4     8 ar  
    14     5    24 1   
    15     5    26 1   
    16     6     9 ar  
    17     6    10 ar  
    18     6    48 1   
    19     7    12 ar  
    20     7    29 1   
    21     8    13 ar  
    22     8    34 1   
    23     9    14 ar  
    24     9    35 1   
    25    10    15 ar  
    26    10    36 1   
    27    11    14 ar  
    28    11    15 ar  
    29    11    16 1   
    30    12    17 ar  
    31    12    37 1   
    32    13    17 ar  
    33    13    38 1   
    34    14    39 1   
    35    15    40 1   
    36    16    18 2   
    37    16    19 1   
    38    17    41 1   
    39    18    20 1   
    40    18    27 1   
    41    19    21 1   
    42    19    23 2   
    43    20    42 1   
    44    20    43 1   
    45    20    44 1   
    46    21    45 1   
    47    21    46 1   
    48    21    47 1   
    49    22    48 1   
    50    23    27 1   
    51    25    48 2   
@<TRIPOS>SUBSTRUCTURE
     1 9UJ         1 TEMP              0 ****  ****    0 ROOT
