@<TRIPOS>MOLECULE
9UJ
   48    51     1     0     0
SMALL
abcg2


@<TRIPOS>ATOM
      1 C09        110.0020   114.9110   130.1710 c5         1 9UJ      -0.046300
      2 C10        109.8260   114.5170   132.5790 c5         1 9UJ       0.333000
      3 C11        110.6570   116.1530   130.7970 c5         1 9UJ       0.091600
      4 C12        111.1260   113.8270   133.0040 ca         1 9UJ      -0.054300
      5 C14        111.0230   114.0230   129.3770 c          1 9UJ       0.721000
      6 C15        107.2000   113.3430   132.2390 ca         1 9UJ      -0.117600
      7 C16        111.5250   112.5340   132.6460 ca         1 9UJ       0.179000
      8 C17        111.9610   114.5040   133.9000 ca         1 9UJ      -0.095000
      9 C18        107.5680   112.3730   133.1720 ca         1 9UJ      -0.078500
     10 C19        105.9390   113.9330   132.3490 ca         1 9UJ      -0.078500
     11 C20        105.4420   112.6090   134.3160 ca         1 9UJ      -0.011000
     12 C21        112.7070   111.9740   133.1250 ca         1 9UJ      -0.110000
     13 C22        113.1340   113.9560   134.3940 ca         1 9UJ      -0.125000
     14 C23        106.6980   112.0070   134.1890 ca         1 9UJ      -0.115000
     15 C24        105.0780   113.5790   133.3740 ca         1 9UJ      -0.115000
     16 C25        104.5250   112.2360   135.3980 cc         1 9UJ      -0.162000
     17 C26        113.5180   112.6820   133.9950 ca         1 9UJ      -0.106000
     18 C27        103.7600   113.0610   136.1720 cd         1 9UJ       0.201300
     19 C28        104.1990   110.9200   135.8670 cc         1 9UJ       0.301300
     20 C29        103.6060   114.5320   136.2560 c3         1 9UJ      -0.137400
     21 C30        104.7160   109.6090   135.3810 c3         1 9UJ      -0.135400
     22 N07        109.3230   114.1700   131.2620 n          1 9UJ      -0.344800
     23 N08        103.3100   110.9620   136.8250 nd         1 9UJ      -0.377300
     24 O03        110.5390   113.3650   128.4260 o          1 9UJ      -0.702000
     25 O04        107.5260   113.7450   129.9430 o          1 9UJ      -0.570100
     26 O05        112.2210   114.0540   129.7380 o          1 9UJ      -0.702000
     27 O06        103.0310   112.3240   137.0320 os         1 9UJ      -0.105700
     28 S02        109.9560   116.3550   132.4660 ss         1 9UJ      -0.573000
     29 CL01       110.5980   111.4840   131.5870 cl         1 9UJ      -0.185000
     30 H1         109.2180   115.1960   129.4750 h1         1 9UJ       0.076700
     31 H2         109.0670   114.3110   133.3270 h2         1 9UJ       0.079700
     32 H3         111.7310   116.0040   130.8710 h1         1 9UJ       0.082200
     33 H4         110.4490   117.0500   130.2180 h1         1 9UJ       0.082200
     34 H5         111.6770   115.5020   134.2030 ha         1 9UJ       0.126000
     35 H6         108.5300   111.8880   133.1030 ha         1 9UJ       0.133000
     36 H7         105.6340   114.6720   131.6210 ha         1 9UJ       0.133000
     37 H8         112.9800   110.9760   132.8070 ha         1 9UJ       0.121000
     38 H9         113.7450   114.5260   135.0810 ha         1 9UJ       0.103000
     39 H10        107.0100   111.2580   134.9040 ha         1 9UJ       0.107500
     40 H11        104.1020   114.0420   133.4320 ha         1 9UJ       0.107500
     41 H12        114.4360   112.2370   134.3590 ha         1 9UJ       0.102000
     42 H13        103.5410   114.8460   137.2990 hc         1 9UJ       0.063033
     43 H14        104.4540   115.0270   135.7870 hc         1 9UJ       0.063033
     44 H15        102.6950   114.8590   135.7480 hc         1 9UJ       0.063033
     45 H16        104.1040   108.7960   135.7700 hc         1 9UJ       0.058700
     46 H17        104.7070   109.5760   134.2910 hc         1 9UJ       0.058700
     47 H18        105.7460   109.4540   135.7080 hc         1 9UJ       0.058700
     48 C13        108.0370   113.7560   131.0620 c          1 9UJ       0.601700
@<TRIPOS>BOND
     1     1     3 1   
     2     1     5 1   
     3     1    22 1   
     4     1    30 1   
     5     2     4 1   
     6     2    22 1   
     7     2    28 1   
     8     2    31 1   
     9     3    28 1   
    10     3    32 1   
    11     3    33 1   
    12     4     7 ar  
    13     4     8 ar  
    14     5    24 1   
    15     5    26 1   
    16     6     9 ar  
    17     6    10 ar  
    18     6    48 1   
    19     7    12 ar  
    20     7    29 1   
    21     8    13 ar  
    22     8    34 1   
    23     9    14 ar  
    24     9    35 1   
    25    10    15 ar  
    26    10    36 1   
    27    11    14 ar  
    28    11    15 ar  
    29    11    16 1   
    30    12    17 ar  
    31    12    37 1   
    32    13    17 ar  
    33    13    38 1   
    34    14    39 1   
    35    15    40 1   
    36    16    18 2   
    37    16    19 1   
    38    17    41 1   
    39    18    20 1   
    40    18    27 1   
    41    19    21 1   
    42    19    23 2   
    43    20    42 1   
    44    20    43 1   
    45    20    44 1   
    46    21    45 1   
    47    21    46 1   
    48    21    47 1   
    49    22    48 1   
    50    23    27 1   
    51    25    48 2   
@<TRIPOS>SUBSTRUCTURE
     1 9UJ         1 TEMP              0 ****  ****    0 ROOT
