@<TRIPOS>MOLECULE
9UL
   29    31     1     0     0
SMALL
abcg2


@<TRIPOS>ATOM
      1 C10          2.1110    -0.8320     0.1580 ca         1 9UL       0.081400
      2 C11          1.1550     0.2000     0.0030 ca         1 9UL      -0.064800
      3 C12          1.5950     1.5080    -0.2150 ca         1 9UL      -0.108000
      4 C13          2.9580     1.7640    -0.2540 ca         1 9UL      -0.114000
      5 C14          3.8940     0.7390    -0.0860 ca         1 9UL      -0.130000
      6 C15          3.4780    -0.5660     0.1170 ca         1 9UL      -0.066000
      7 N02         -2.5640    -0.4650    -0.0230 nh         1 9UL      -0.651400
      8 C03         -3.6900     0.4630    -0.0860 c5         1 9UL       0.208800
      9 C04         -3.0810     1.7830     0.3590 c5         1 9UL      -0.097400
     10 C05         -1.5980     1.6190     0.0310 c5         1 9UL      -0.071200
     11 C06         -1.3850     0.1310     0.0410 c2         1 9UL       0.262800
     12 C07         -0.1280    -0.4670     0.0880 cc         1 9UL      -0.339800
     13 C08          0.2240    -1.8450     0.2870 cc         1 9UL       0.448500
     14 N09          1.5120    -2.0610     0.3390 nd         1 9UL      -0.568100
     15 H1           0.9050     2.3270    -0.3630 ha         1 9UL       0.096000
     16 H2           3.3010     2.7770    -0.4210 ha         1 9UL       0.103000
     17 H3           4.9520     0.9680    -0.1220 ha         1 9UL       0.107000
     18 H4           4.1950    -1.3690     0.2370 ha         1 9UL       0.121000
     19 H5          -2.6130    -2.4220     0.7450 h1         1 9UL       0.051367
     20 H6          -3.8390    -2.0320    -0.4610 h1         1 9UL       0.051367
     21 H7          -2.1700    -2.2920    -0.9690 h1         1 9UL       0.051367
     22 H8          -4.0740     0.4990    -1.1100 h1         1 9UL       0.054700
     23 H9          -3.5310     2.6370    -0.1420 hc         1 9UL       0.063700
     24 H10         -1.3550     2.0030    -0.9640 hc         1 9UL       0.082700
     25 H11         -0.4610    -2.6690     0.4290 h4         1 9UL       0.016800
     26 H13         -0.9500     2.1270     0.7430 hc         1 9UL       0.082700
     27 H14         -3.2130     1.9130     1.4330 hc         1 9UL       0.063700
     28 H15         -4.4950     0.1190     0.5630 h1         1 9UL       0.054700
     29 C01         -2.8010    -1.8790    -0.1820 c3         1 9UL       0.207100
@<TRIPOS>BOND
     1     1     2 ar  
     2     1     6 ar  
     3     1    14 1   
     4     2     3 ar  
     5     2    12 1   
     6     3     4 ar  
     7     3    15 1   
     8     4     5 ar  
     9     4    16 1   
    10     5     6 ar  
    11     5    17 1   
    12     6    18 1   
    13     7     8 1   
    14     7    11 1   
    15     7    29 1   
    16     8     9 1   
    17     8    22 1   
    18     8    28 1   
    19     9    10 1   
    20     9    23 1   
    21     9    27 1   
    22    10    11 1   
    23    10    24 1   
    24    10    26 1   
    25    11    12 2   
    26    12    13 1   
    27    13    14 2   
    28    13    25 1   
    29    19    29 1   
    30    20    29 1   
    31    21    29 1   
@<TRIPOS>SUBSTRUCTURE
     1 9UL         1 TEMP              0 ****  ****    0 ROOT
