@<TRIPOS>MOLECULE
9UL
   29    31     1     0     0
SMALL
No Charge or Current Charge


@<TRIPOS>ATOM
      1 C10          2.0690    -0.6120     0.7380 ca         1 9UL       0.081400
      2 C11          1.0980     0.0750     0.0280 ca         1 9UL      -0.064800
      3 C12          1.3800     0.8480    -1.1030 ca         1 9UL      -0.108000
      4 C13          2.7230     0.9200    -1.5240 ca         1 9UL      -0.114000
      5 C14          3.7320     0.2260    -0.8130 ca         1 9UL      -0.130000
      6 C15          3.4090    -0.5470     0.3260 ca         1 9UL      -0.066000
      7 N02         -2.3020    -0.2020    -0.3510 nh         1 9UL      -0.651400
      8 C03         -3.5080     0.6550    -0.4400 c5         1 9UL       0.208800
      9 C04         -3.5000     1.3100     0.9620 c5         1 9UL      -0.097400
     10 C05         -1.9780     1.5310     1.1630 c5         1 9UL      -0.071200
     11 C06         -1.3440     0.3320     0.4920 c2         1 9UL       0.262800
     12 C07         -0.1250    -0.2090     0.6910 cc         1 9UL      -0.339800
     13 C08          0.2520    -1.0360     1.7840 cc         1 9UL       0.448500
     14 N09          1.5610    -1.3220     1.8450 nd         1 9UL      -0.568100
     15 H1           0.5910     1.3700    -1.6390 ha         1 9UL       0.096000
     16 H2           2.9850     1.5100    -2.3990 ha         1 9UL       0.103000
     17 H3           4.7660     0.2880    -1.1450 ha         1 9UL       0.107000
     18 H4           4.1820    -1.0800     0.8740 ha         1 9UL       0.121000
     19 H5          -1.8010    -2.2450    -0.6430 h1         1 9UL       0.051367
     20 H6          -2.9800    -1.5990    -1.8090 h1         1 9UL       0.051367
     21 H7          -1.2610    -1.1500    -1.9410 h1         1 9UL       0.051367
     22 H8          -3.3900     1.4140    -1.2260 h1         1 9UL       0.054700
     23 H9          -4.0830     2.2370     1.0050 hc         1 9UL       0.063700
     24 H10         -1.6340     2.4540     0.6830 hc         1 9UL       0.082700
     25 H11         -0.3980    -1.4260     2.5560 h4         1 9UL       0.016800
     26 H13         -1.7060     1.5930     2.2220 hc         1 9UL       0.082700
     27 H14         -3.9030     0.6240     1.7160 hc         1 9UL       0.063700
     28 H15         -4.4260     0.0850    -0.6410 h1         1 9UL       0.054700
     29 C01         -2.0750    -1.3630    -1.2350 c3         1 9UL       0.207100
@<TRIPOS>BOND
     1     1     2 ar  
     2     1     6 ar  
     3     1    14 1   
     4     2     3 ar  
     5     2    12 1   
     6     3     4 ar  
     7     3    15 1   
     8     4     5 ar  
     9     4    16 1   
    10     5     6 ar  
    11     5    17 1   
    12     6    18 1   
    13     7     8 1   
    14     7    11 1   
    15     7    29 1   
    16     8     9 1   
    17     8    22 1   
    18     8    28 1   
    19     9    10 1   
    20     9    23 1   
    21     9    27 1   
    22    10    11 1   
    23    10    24 1   
    24    10    26 1   
    25    11    12 2   
    26    12    13 1   
    27    13    14 2   
    28    13    25 1   
    29    19    29 1   
    30    20    29 1   
    31    21    29 1   
@<TRIPOS>SUBSTRUCTURE
     1 9UL         1 TEMP              0 ****  ****    0 ROOT
