@<TRIPOS>MOLECULE
9UM
   26    27     1     0     0
SMALL
bcc


@<TRIPOS>ATOM
      1 C1          -2.8570     0.0390    -0.2210 c          1 9UM       0.732700
      2 C2          -2.4760     1.4230     0.0150 cc         1 9UM      -0.262400
      3 C3          -1.1660     1.4500     0.3750 cd         1 9UM       0.172800
      4 C4           0.4420    -0.5820     0.6310 cc         1 9UM       0.148800
      5 C5           0.1610    -1.8980     0.4460 cd         1 9UM      -0.239400
      6 C6          -1.2380    -2.0040     0.0450 c          1 9UM       0.729700
      7 C7           1.0520    -3.0790     0.5730 c3         1 9UM      -0.016900
      8 C8           1.7290     0.0290     1.0150 c3         1 9UM       0.042200
      9 C9          -0.3150     2.6080     0.7310 c3         1 9UM      -0.059900
     10 C10         -3.4330     2.5550    -0.1120 c3         1 9UM      -0.013900
     11 N1          -0.6850     0.1600     0.3720 na         1 9UM      -0.315200
     12 N2          -1.6820    -0.6820     0.0220 n          1 9UM      -0.375800
     13 O1          -3.9120    -0.4550    -0.5520 o          1 9UM      -0.544500
     14 O2          -1.9150    -2.9730    -0.2190 o          1 9UM      -0.544500
     15 BR1          2.6980     0.6260    -0.5900 br         1 9UM      -0.144400
     16 H1           0.6040    -3.8380     1.2150 hc         1 9UM       0.052033
     17 H2           1.2320    -3.5390    -0.4000 hc         1 9UM       0.052033
     18 H3           2.0180    -2.8140     0.9980 hc         1 9UM       0.052033
     19 H4           1.6170     0.8920     1.6680 h1         1 9UM       0.095200
     20 H5           2.3610    -0.7000     1.5150 h1         1 9UM       0.095200
     21 H6          -0.8870     3.5280     0.6390 hc         1 9UM       0.066033
     22 H7           0.0380     2.5400     1.7600 hc         1 9UM       0.066033
     23 H8           0.5530     2.6850     0.0760 hc         1 9UM       0.066033
     24 H9          -4.1180     2.3900    -0.9430 hc         1 9UM       0.049033
     25 H10         -4.0380     2.6710     0.7890 hc         1 9UM       0.049033
     26 H11         -2.9200     3.4980    -0.2900 hc         1 9UM       0.049033
@<TRIPOS>BOND
     1     1     2 1   
     2     1    12 1   
     3     1    13 2   
     4     2     3 2   
     5     2    10 1   
     6     3     9 1   
     7     3    11 1   
     8     4     5 2   
     9     4     8 1   
    10     4    11 1   
    11     5     6 1   
    12     5     7 1   
    13     6    12 1   
    14     6    14 2   
    15     7    16 1   
    16     7    17 1   
    17     7    18 1   
    18     8    15 1   
    19     8    19 1   
    20     8    20 1   
    21     9    21 1   
    22     9    22 1   
    23     9    23 1   
    24    10    24 1   
    25    10    25 1   
    26    10    26 1   
    27    11    12 1   
@<TRIPOS>SUBSTRUCTURE
     1 9UM         1 TEMP              0 ****  ****    0 ROOT
