@<TRIPOS>MOLECULE
9UM
   26    27     1     0     0
SMALL
No Charge or Current Charge


@<TRIPOS>ATOM
      1 C1          -2.8710     0.0010    -0.2350 c          1 9UM       0.590200
      2 C2          -2.4630     1.3930     0.0220 cc         1 9UM      -0.262400
      3 C3          -1.1390     1.4740     0.4280 cd         1 9UM       0.172800
      4 C4           0.4850    -0.5490     0.6790 cc         1 9UM       0.148800
      5 C5           0.1320    -1.8660     0.4120 cd         1 9UM      -0.239400
      6 C6          -1.2780    -2.0040     0.0010 c          1 9UM       0.587200
      7 C7           1.0060    -3.0970     0.4860 c3         1 9UM      -0.016900
      8 C8           1.8060     0.0370     1.1040 c3         1 9UM       0.124800
      9 C9          -0.3070     2.6730     0.7880 c3         1 9UM      -0.059900
     10 C10         -3.4630     2.5090    -0.1750 c3         1 9UM      -0.013900
     11 N1          -0.7050     0.1470     0.4480 na         1 9UM      -0.315200
     12 N2          -1.7290    -0.7110     0.0360 n          1 9UM      -0.241800
     13 O1          -3.9500    -0.4410    -0.6070 o          1 9UM      -0.469000
     14 O2          -1.9060    -3.0070    -0.3070 o          1 9UM      -0.469000
     15 Br1          2.9200     0.6920    -0.4150 br         1 9UM      -0.227000
     16 H1           0.8780    -3.6110     1.4460 hc         1 9UM       0.052033
     17 H2           0.7630    -3.8110    -0.3110 hc         1 9UM       0.052033
     18 H3           2.0670    -2.8420     0.3810 hc         1 9UM       0.052033
     19 H4           1.6540     0.8850     1.7800 h1         1 9UM       0.095200
     20 H5           2.4040    -0.7200     1.6240 h1         1 9UM       0.095200
     21 H6          -0.8760     3.6020     0.6730 hc         1 9UM       0.066033
     22 H7           0.0280     2.6190     1.8300 hc         1 9UM       0.066033
     23 H8           0.5770     2.7460     0.1460 hc         1 9UM       0.066033
     24 H9          -4.2670     2.2190    -0.8610 hc         1 9UM       0.049033
     25 H10         -3.9210     2.7920     0.7800 hc         1 9UM       0.049033
     26 H11         -2.9810     3.4000    -0.5950 hc         1 9UM       0.049033
@<TRIPOS>BOND
     1     1     2 1   
     2     1    12 1   
     3     1    13 2   
     4     2     3 2   
     5     2    10 1   
     6     3     9 1   
     7     3    11 1   
     8     4     5 2   
     9     4     8 1   
    10     4    11 1   
    11     5     6 1   
    12     5     7 1   
    13     6    12 1   
    14     6    14 2   
    15     7    16 1   
    16     7    17 1   
    17     7    18 1   
    18     8    15 1   
    19     8    19 1   
    20     8    20 1   
    21     9    21 1   
    22     9    22 1   
    23     9    23 1   
    24    10    24 1   
    25    10    25 1   
    26    10    26 1   
    27    11    12 1   
@<TRIPOS>SUBSTRUCTURE
     1 9UM         1 TEMP              0 ****  ****    0 ROOT
