@<TRIPOS>MOLECULE
9UN
   55    58     1     0     0
SMALL
No Charge or Current Charge


@<TRIPOS>ATOM
      1 C1           3.5680    -4.6080     0.2270 ca         1 9UN      -0.268000
      2 C2           2.2520    -4.1500     0.1020 ca         1 9UN       0.244100
      3 C3           1.9820    -2.8870    -0.4540 ca         1 9UN      -0.325500
      4 C4           3.0680    -2.0800    -0.8730 ca         1 9UN       0.209100
      5 C5           4.3820    -2.5510    -0.7560 ca         1 9UN      -0.195000
      6 C6           4.6310    -3.8100    -0.2050 ca         1 9UN       0.216100
      7 O7           5.9120    -4.2540    -0.0900 oh         1 9UN      -0.517100
      8 O8           1.2420    -4.9610     0.5170 oh         1 9UN      -0.522100
      9 O9           2.8780    -0.8260    -1.4130 os         1 9UN      -0.240200
     10 C10          2.1540     0.1550    -0.7740 ca         1 9UN       0.169100
     11 C11          1.3300     0.9950    -1.5360 ca         1 9UN      -0.160500
     12 C12          0.5100     1.9480    -0.9060 ca         1 9UN      -0.017500
     13 C13          0.5220     2.0750     0.5030 ca         1 9UN      -0.205200
     14 C14          1.3860     1.2520     1.2630 ca         1 9UN      -0.017500
     15 C15          2.1990     0.2990     0.6250 ca         1 9UN      -0.160500
     16 N16         -0.3750     3.0640     1.1800 no         1 9UN       0.700200
     17 O17         -1.2070     3.6660     0.4910 o          1 9UN      -0.401000
     18 O18         -0.2560     3.2200     2.4020 o          1 9UN      -0.401000
     19 C19          0.6110    -2.4090    -0.5920 cc         1 9UN       0.212500
     20 O20          0.0500    -2.0540    -1.7890 os         1 9UN      -0.039700
     21 N21         -1.1360    -1.2770    -1.4980 nc         1 9UN      -0.354300
     22 C22         -1.1700    -1.1850    -0.1670 cd         1 9UN       0.216500
     23 C23         -0.1080    -1.8950     0.4330 cd         1 9UN      -0.195000
     24 C24         -2.1750    -0.3530     0.5790 c          1 9UN       0.525600
     25 O25         -2.2180    -0.2550     1.8000 o          1 9UN      -0.586100
     26 N26         -3.0500     0.3350    -0.2390 ns         1 9UN      -0.484900
     27 C27         -4.0840     1.2750     0.2100 c6         1 9UN       0.110700
     28 C28         -4.4340     2.2700    -0.9190 c6         1 9UN      -0.091900
     29 C29         -5.5610     3.2310    -0.4750 c6         1 9UN       0.167800
     30 N30         -6.7760     2.4810    -0.0540 n3         1 9UN      -0.718600
     31 C31         -6.4770     1.5230     1.0450 c6         1 9UN       0.167800
     32 C32         -5.3670     0.5260     0.6370 c6         1 9UN      -0.091900
     33 C33         -7.9050     3.3780     0.2740 c3         1 9UN       0.153100
     34 H1           3.7510    -5.5880     0.6570 ha         1 9UN       0.141000
     35 H5           5.2090    -1.9310    -1.0880 ha         1 9UN       0.156000
     36 HO7          5.8910    -5.1470     0.3130 ho         1 9UN       0.478000
     37 HO8          0.3930    -4.5240     0.3080 ho         1 9UN       0.486000
     38 H11          1.3000     0.8830    -2.6160 ha         1 9UN       0.144500
     39 H12         -0.1390     2.5720    -1.5190 ha         1 9UN       0.154500
     40 H14          1.4210     1.3320     2.3490 ha         1 9UN       0.154500
     41 H15          2.8450    -0.3420     1.2200 ha         1 9UN       0.144500
     42 H23          0.1450    -1.9200     1.4870 ha         1 9UN       0.176000
     43 HN26        -2.9310     0.1880    -1.2360 hn         1 9UN       0.331500
     44 H27         -3.6940     1.8410     1.0710 h1         1 9UN       0.077700
     45 H28         -3.5450     2.8510    -1.1970 hc         1 9UN       0.054950
     46 H28A        -4.7520     1.7260    -1.8190 hc         1 9UN       0.054950
     47 H29         -5.1950     3.8580     0.3520 h1         1 9UN       0.035700
     48 H29A        -5.8000     3.9040    -1.3110 h1         1 9UN       0.035700
     49 H31         -6.1580     2.0660     1.9480 h1         1 9UN       0.035700
     50 H31A        -7.3800     0.9540     1.3120 h1         1 9UN       0.035700
     51 H32         -5.7270    -0.1070    -0.1860 hc         1 9UN       0.054950
     52 H32A        -5.1500    -0.1450     1.4790 hc         1 9UN       0.054950
     53 H33         -8.1440     4.0280    -0.5780 h1         1 9UN       0.031700
     54 H33A        -8.8040     2.7960     0.5180 h1         1 9UN       0.031700
     55 H33B        -7.6630     4.0150     1.1360 h1         1 9UN       0.031700
@<TRIPOS>BOND
     1     1     2 ar  
     2     1     6 ar  
     3     1    34 1   
     4     2     3 ar  
     5     2     8 1   
     6     3     4 ar  
     7     3    19 1   
     8     4     5 ar  
     9     4     9 1   
    10     5     6 ar  
    11     5    35 1   
    12     6     7 1   
    13     7    36 1   
    14     8    37 1   
    15     9    10 1   
    16    10    11 ar  
    17    10    15 ar  
    18    11    12 ar  
    19    11    38 1   
    20    12    13 ar  
    21    12    39 1   
    22    13    14 ar  
    23    13    16 1   
    24    14    15 ar  
    25    14    40 1   
    26    15    41 1   
    27    16    17 1   
    28    16    18 1   
    29    19    20 1   
    30    19    23 2   
    31    20    21 1   
    32    21    22 2   
    33    22    23 1   
    34    22    24 1   
    35    23    42 1   
    36    24    25 2   
    37    24    26 1   
    38    26    27 1   
    39    26    43 1   
    40    27    28 1   
    41    27    32 1   
    42    27    44 1   
    43    28    29 1   
    44    28    45 1   
    45    28    46 1   
    46    29    30 1   
    47    29    47 1   
    48    29    48 1   
    49    30    31 1   
    50    30    33 1   
    51    31    32 1   
    52    31    49 1   
    53    31    50 1   
    54    32    51 1   
    55    32    52 1   
    56    33    53 1   
    57    33    54 1   
    58    33    55 1   
@<TRIPOS>SUBSTRUCTURE
     1 9UN         1 TEMP              0 ****  ****    0 ROOT
