@<TRIPOS>MOLECULE
9UN
   55    58     1     0     0
SMALL
abcg2


@<TRIPOS>ATOM
      1 C1           3.2250    -4.5950     0.3020 ca         1 9UN      -0.268000
      2 C2           2.0030    -3.9330     0.3660 ca         1 9UN       0.244100
      3 C3           1.8290    -2.7000    -0.2750 ca         1 9UN      -0.325500
      4 C4           2.9240    -2.1600    -0.9610 ca         1 9UN       0.209100
      5 C5           4.1400    -2.7950    -1.0350 ca         1 9UN      -0.195000
      6 C6           4.2820    -4.0330    -0.4000 ca         1 9UN       0.216100
      7 O7           5.4750    -4.6300    -0.4950 oh         1 9UN      -0.517100
      8 O8           1.0240    -4.5400     1.0460 oh         1 9UN      -0.522100
      9 O9           2.7840    -0.9600    -1.6050 os         1 9UN      -0.240200
     10 C10          2.4430     0.1340    -0.8770 ca         1 9UN       0.169100
     11 C11          1.6950     1.1120    -1.5240 ca         1 9UN      -0.160500
     12 C12          1.3160     2.2480    -0.8390 ca         1 9UN      -0.017500
     13 C13          1.6880     2.3950     0.4910 ca         1 9UN      -0.205200
     14 C14          2.4480     1.4300     1.1370 ca         1 9UN      -0.017500
     15 C15          2.8300     0.2950     0.4500 ca         1 9UN      -0.160500
     16 N16          1.2820     3.5820     1.2160 no         1 9UN       0.700200
     17 O17          0.6400     4.4190     0.6250 o          1 9UN      -0.401000
     18 O18          1.6040     3.6780     2.3780 o          1 9UN      -0.401000
     19 C19          0.5520    -2.0010    -0.2360 cc         1 9UN       0.212500
     20 O20         -0.0330    -1.7030    -1.4100 os         1 9UN      -0.039700
     21 N21         -1.1670    -1.0120    -1.1940 nc         1 9UN      -0.354300
     22 C22         -1.2950    -0.9030     0.0960 cd         1 9UN       0.216500
     23 C23         -0.2210    -1.5240     0.7720 cd         1 9UN      -0.195000
     24 C24         -2.4380    -0.1810     0.7280 c          1 9UN       0.525600
     25 O25         -2.5460    -0.1800     1.9440 o          1 9UN      -0.586100
     26 N26         -3.2610     0.4350    -0.1240 ns         1 9UN      -0.484900
     27 C27         -4.4500     1.1610     0.2790 c6         1 9UN       0.110700
     28 C28         -4.6920     2.3310    -0.6650 c6         1 9UN      -0.091900
     29 C29         -5.9760     3.0570    -0.2910 c6         1 9UN       0.167800
     30 N30         -7.1130     2.1560    -0.2890 n3         1 9UN      -0.718600
     31 C31         -6.9230     1.0700     0.6530 c6         1 9UN       0.167800
     32 C32         -5.6810     0.2600     0.3190 c6         1 9UN      -0.091900
     33 C33         -8.3440     2.8690    -0.0310 c3         1 9UN       0.153100
     34 H1           3.3350    -5.5530     0.7960 ha         1 9UN       0.141000
     35 H5           4.9680    -2.3420    -1.5630 ha         1 9UN       0.156000
     36 HO7          5.4810    -5.4640    -0.0130 ho         1 9UN       0.478000
     37 HO8          0.1880    -4.0620     0.9800 ho         1 9UN       0.486000
     38 H11          1.4030     0.9760    -2.5560 ha         1 9UN       0.144500
     39 H12          0.7250     2.9990    -1.3430 ha         1 9UN       0.154500
     40 H14          2.7490     1.5510     2.1670 ha         1 9UN       0.154500
     41 H15          3.4240    -0.4550     0.9560 ha         1 9UN       0.144500
     42 H23         -0.0270    -1.5580     1.8310 ha         1 9UN       0.176000
     43 HN26        -3.0890     0.3340    -1.1130 hn         1 9UN       0.331500
     44 H27         -4.2710     1.5560     1.2830 h1         1 9UN       0.077700
     45 H28         -3.8530     3.0280    -0.6260 hc         1 9UN       0.054950
     46 H28A        -4.7680     1.9650    -1.6940 hc         1 9UN       0.054950
     47 H29         -5.8450     3.5440     0.6920 h1         1 9UN       0.035700
     48 H29A        -6.1610     3.8550    -1.0130 h1         1 9UN       0.035700
     49 H31         -6.8470     1.4450     1.6910 h1         1 9UN       0.035700
     50 H31A        -7.8020     0.4210     0.6210 h1         1 9UN       0.035700
     51 H32         -5.8070    -0.2250    -0.6540 hc         1 9UN       0.054950
     52 H32A        -5.5470    -0.5280     1.0630 hc         1 9UN       0.054950
     53 H33         -8.4920     3.6460    -0.7820 h1         1 9UN       0.031700
     54 H33A        -9.1920     2.1850    -0.0850 h1         1 9UN       0.031700
     55 H33B        -8.3660     3.3510     0.9590 h1         1 9UN       0.031700
@<TRIPOS>BOND
     1     1     2 ar  
     2     1     6 ar  
     3     1    34 1   
     4     2     3 ar  
     5     2     8 1   
     6     3     4 ar  
     7     3    19 1   
     8     4     5 ar  
     9     4     9 1   
    10     5     6 ar  
    11     5    35 1   
    12     6     7 1   
    13     7    36 1   
    14     8    37 1   
    15     9    10 1   
    16    10    11 ar  
    17    10    15 ar  
    18    11    12 ar  
    19    11    38 1   
    20    12    13 ar  
    21    12    39 1   
    22    13    14 ar  
    23    13    16 1   
    24    14    15 ar  
    25    14    40 1   
    26    15    41 1   
    27    16    17 1   
    28    16    18 1   
    29    19    20 1   
    30    19    23 2   
    31    20    21 1   
    32    21    22 2   
    33    22    23 1   
    34    22    24 1   
    35    23    42 1   
    36    24    25 2   
    37    24    26 1   
    38    26    27 1   
    39    26    43 1   
    40    27    28 1   
    41    27    32 1   
    42    27    44 1   
    43    28    29 1   
    44    28    45 1   
    45    28    46 1   
    46    29    30 1   
    47    29    47 1   
    48    29    48 1   
    49    30    31 1   
    50    30    33 1   
    51    31    32 1   
    52    31    49 1   
    53    31    50 1   
    54    32    51 1   
    55    32    52 1   
    56    33    53 1   
    57    33    54 1   
    58    33    55 1   
@<TRIPOS>SUBSTRUCTURE
     1 9UN         1 TEMP              0 ****  ****    0 ROOT
