@<TRIPOS>MOLECULE
9UO
   40    41     1     0     0
SMALL
No Charge or Current Charge


@<TRIPOS>ATOM
      1 C10          0.0180     1.0000    -0.0490 cp         1 9UO       0.178000
      2 C13          0.3100     4.8290    -0.3920 ca         1 9UO      -0.083000
      3 C15         -1.9170     4.1570     0.2570 ca         1 9UO       0.436000
      4 C21          4.0120    -0.3320    -0.8910 c3         1 9UO       0.188000
      5 C22          4.9330    -1.1120    -1.8560 c3         1 9UO      -0.110600
      6 C01         -3.4740    -3.0130     1.8170 c3         1 9UO      -0.110600
      7 C02         -2.9820    -1.9480     0.8100 c3         1 9UO       0.188000
      8 C03         -3.7870    -1.9680    -0.5370 c3         1 9UO       0.276000
      9 C08         -0.5790    -1.1840     0.2830 ca         1 9UO       0.441900
     10 C11         -0.3170     2.4810    -0.0600 cp         1 9UO       0.296000
     11 C12          0.6550     3.4670    -0.3910 ca         1 9UO      -0.110000
     12 C14         -1.0070     5.1780    -0.0600 ca         1 9UO      -0.132000
     13 C19          1.5190    -0.7000    -0.3470 ca         1 9UO       0.441900
     14 C23          4.7320     0.0700     0.4440 c3         1 9UO       0.276000
     15 F04         -3.6550    -3.1560    -1.1760 f          1 9UO      -0.112833
     16 F05         -5.1070    -1.7660    -0.3160 f          1 9UO      -0.112833
     17 F06         -3.3660    -0.9980    -1.3810 f          1 9UO      -0.112833
     18 F24          5.1300    -1.0220     1.1410 f          1 9UO      -0.112833
     19 F25          5.8300     0.8210     0.1950 f          1 9UO      -0.112833
     20 F26          3.9200     0.7970     1.2470 f          1 9UO      -0.112833
     21 N07         -1.5180    -2.1410     0.6220 nu         1 9UO      -0.923600
     22 N09         -0.9430     0.1100     0.2930 nb         1 9UO      -0.288000
     23 N17         -1.5880     2.8480     0.2590 nb         1 9UO      -0.620000
     24 N18          1.2730     0.6210    -0.3810 nb         1 9UO      -0.288000
     25 N20          2.7860    -1.1480    -0.6740 nu         1 9UO      -0.923600
     26 N27          0.6350    -1.6500    -0.0260 nb         1 9UO      -0.341000
     27 H1           1.0450     5.5920    -0.6430 ha         1 9UO       0.128000
     28 H2           3.7450     0.6040    -1.4050 h1         1 9UO       0.121200
     29 H3           5.2640    -2.0580    -1.4120 hc         1 9UO       0.059533
     30 H4           4.4080    -1.3360    -2.7930 hc         1 9UO       0.059533
     31 H5           5.8220    -0.5220    -2.1070 hc         1 9UO       0.059533
     32 H6          -3.3420    -4.0260     1.4200 hc         1 9UO       0.059533
     33 H7          -2.9180    -2.9370     2.7600 hc         1 9UO       0.059533
     34 H8          -4.5370    -2.8710     2.0450 hc         1 9UO       0.059533
     35 H9          -3.1690    -0.9700     1.2790 h1         1 9UO       0.121200
     36 H10          1.6700     3.1750    -0.6450 ha         1 9UO       0.150000
     37 H11         -1.3250     6.2160    -0.0460 ha         1 9UO       0.141000
     38 H12         -1.1730    -3.1000     0.5620 hn         1 9UO       0.517500
     39 H13          2.9000    -2.1590    -0.5980 hn         1 9UO       0.517500
     40 Cl1         -3.5780     4.5440     0.6790 cl         1 9UO      -0.167000
@<TRIPOS>BOND
     1     1    10 1   
     2     1    22 ar  
     3     1    24 ar  
     4     2    11 ar  
     5     2    12 ar  
     6     2    27 1   
     7     3    12 ar  
     8     3    23 ar  
     9     3    40 1   
    10     4     5 1   
    11     4    14 1   
    12     4    25 1   
    13     4    28 1   
    14     5    29 1   
    15     5    30 1   
    16     5    31 1   
    17     6     7 1   
    18     6    32 1   
    19     6    33 1   
    20     6    34 1   
    21     7     8 1   
    22     7    21 1   
    23     7    35 1   
    24     8    15 1   
    25     8    16 1   
    26     8    17 1   
    27     9    21 1   
    28     9    22 ar  
    29     9    26 ar  
    30    10    11 ar  
    31    10    23 ar  
    32    11    36 1   
    33    12    37 1   
    34    13    24 ar  
    35    13    25 1   
    36    13    26 ar  
    37    14    18 1   
    38    14    19 1   
    39    14    20 1   
    40    21    38 1   
    41    25    39 1   
@<TRIPOS>SUBSTRUCTURE
     1 9UO         1 TEMP              0 ****  ****    0 ROOT
