@<TRIPOS>MOLECULE
9UO
   40    41     1     0     0
SMALL
bcc


@<TRIPOS>ATOM
      1 C10          0.0300     0.9160    -0.0440 cp         1 9UO       0.704000
      2 C13          0.3530     4.6550    -0.2690 ca         1 9UO      -0.101000
      3 C15         -1.8660     3.9770     0.1560 ca         1 9UO       0.501300
      4 C21          3.9020    -0.2760    -0.8390 c3         1 9UO       0.188000
      5 C22          4.7660    -0.8970    -1.9270 c3         1 9UO      -0.110600
      6 C01         -3.4580    -2.7200     1.8660 c3         1 9UO      -0.110600
      7 C02         -2.9170    -1.8590     0.7330 c3         1 9UO       0.188000
      8 C03         -3.6960    -2.0640    -0.5600 c3         1 9UO       0.639900
      9 C08         -0.5890    -1.2120     0.2260 ca         1 9UO       0.967900
     10 C11         -0.2900     2.3680    -0.0540 cp         1 9UO       0.361300
     11 C12          0.7040     3.3120    -0.2720 ca         1 9UO      -0.193300
     12 C14         -0.9640     5.0130    -0.0510 ca         1 9UO      -0.215300
     13 C19          1.5410    -0.7200    -0.2660 ca         1 9UO       0.967900
     14 C23          4.7000     0.0100     0.4270 c3         1 9UO       0.639900
     15 F04         -3.6680    -3.3410    -0.9690 f          1 9UO      -0.234133
     16 F05         -4.9840    -1.7250    -0.4190 f          1 9UO      -0.234133
     17 F06         -3.2010    -1.3280    -1.5620 f          1 9UO      -0.234133
     18 F24          5.2700    -1.0960     0.9250 f          1 9UO      -0.234133
     19 F25          5.6830     0.8910     0.1980 f          1 9UO      -0.234133
     20 F26          3.9330     0.5190     1.3970 f          1 9UO      -0.234133
     21 N07         -1.5260    -2.1360     0.5000 nu         1 9UO      -0.868400
     22 N09         -0.9510     0.0760     0.2230 nb         1 9UO      -0.814000
     23 N17         -1.5600     2.7090     0.1580 nb         1 9UO      -0.620000
     24 N18          1.2850     0.5910    -0.3000 nb         1 9UO      -0.814000
     25 N20          2.7930    -1.1350    -0.5230 nu         1 9UO      -0.868400
     26 N27          0.6400    -1.6630    -0.0070 nb         1 9UO      -0.867000
     27 H1           1.1020     5.4180    -0.4330 ha         1 9UO       0.146000
     28 H2           3.5090     0.6800    -1.1890 h1         1 9UO       0.121200
     29 H3           5.1360    -1.8820    -1.6400 hc         1 9UO       0.059533
     30 H4           4.1710    -1.0100    -2.8310 hc         1 9UO       0.059533
     31 H5           5.6220    -0.2690    -2.1690 hc         1 9UO       0.059533
     32 H6          -3.3110    -3.7830     1.6770 hc         1 9UO       0.059533
     33 H7          -2.9360    -2.4630     2.7850 hc         1 9UO       0.059533
     34 H8          -4.5210    -2.5450     2.0280 hc         1 9UO       0.059533
     35 H9          -3.0150    -0.8050     0.9970 h1         1 9UO       0.121200
     36 H10          1.7250     3.0010    -0.4380 ha         1 9UO       0.168000
     37 H11         -1.2800     6.0460    -0.0390 ha         1 9UO       0.159000
     38 H12         -1.2170    -3.0970     0.5090 hn         1 9UO       0.462300
     39 H13          2.9450    -2.1330    -0.5130 hn         1 9UO       0.462300
     40 CL1         -3.5350     4.3700     0.4380 cl         1 9UO      -0.167000
@<TRIPOS>BOND
     1     1    10 1   
     2     1    22 ar  
     3     1    24 ar  
     4     2    11 ar  
     5     2    12 ar  
     6     2    27 1   
     7     3    12 ar  
     8     3    23 ar  
     9     3    40 1   
    10     4     5 1   
    11     4    14 1   
    12     4    25 1   
    13     4    28 1   
    14     5    29 1   
    15     5    30 1   
    16     5    31 1   
    17     6     7 1   
    18     6    32 1   
    19     6    33 1   
    20     6    34 1   
    21     7     8 1   
    22     7    21 1   
    23     7    35 1   
    24     8    15 1   
    25     8    16 1   
    26     8    17 1   
    27     9    21 1   
    28     9    22 ar  
    29     9    26 ar  
    30    10    11 ar  
    31    10    23 ar  
    32    11    36 1   
    33    12    37 1   
    34    13    24 ar  
    35    13    25 1   
    36    13    26 ar  
    37    14    18 1   
    38    14    19 1   
    39    14    20 1   
    40    21    38 1   
    41    25    39 1   
@<TRIPOS>SUBSTRUCTURE
     1 9UO         1 TEMP              0 ****  ****    0 ROOT
