@<TRIPOS>MOLECULE
9UP
   31    32     1     0     0
SMALL
No Charge or Current Charge


@<TRIPOS>ATOM
      1 CAA          4.6990    -2.4300    -0.0730 c3         1 9UP       0.171900
      2 OAL          3.3570    -1.9380     0.1070 os         1 9UP      -0.458100
      3 CAN          3.1350    -0.6010    -0.0780 c          1 9UP       0.644100
      4 OAD          3.9920     0.2090    -0.4070 o          1 9UP      -0.521000
      5 N1           1.7920    -0.3410     0.1150 ns         1 9UP      -0.160000
      6 CAP          1.0390     0.8690     0.0760 ca         1 9UP      -0.007000
      7 CAR         -0.3800     0.8160    -0.0080 ca         1 9UP      -0.060000
      8 CAJ         -1.0750    -0.4170    -0.0770 ca         1 9UP      -0.049000
      9 CAF          1.6750     2.1290     0.1470 ca         1 9UP      -0.111000
     10 CAE          0.9250     3.3140     0.1200 ca         1 9UP      -0.084000
     11 CAH         -0.4710     3.2600     0.0280 ca         1 9UP      -0.114000
     12 CAQ         -1.1250     2.0180    -0.0330 ca         1 9UP      -0.015000
     13 CAI         -2.5260     1.9800    -0.1270 ca         1 9UP      -0.106000
     14 CAG         -3.2030     0.7530    -0.1900 ca         1 9UP      -0.091000
     15 CAO         -2.4870    -0.4660    -0.1490 ca         1 9UP      -0.147900
     16 CAM         -3.1920    -1.7880    -0.2510 ce         1 9UP       0.658800
     17 N2          -4.4900    -1.8490     0.1170 nv         1 9UP      -1.073200
     18 N3          -2.6070    -2.8680    -0.5700 n2         1 9UP      -0.827100
     19 H1           5.0510    -2.2430    -1.0960 h1         1 9UP       0.050033
     20 H2           5.3910    -1.9450     0.6280 h1         1 9UP       0.050033
     21 H3           4.7360    -3.5110     0.1070 h1         1 9UP       0.050033
     22 H4           1.2510    -1.1630     0.3420 hn         1 9UP       0.172000
     23 H5          -0.5260    -1.3550    -0.0690 ha         1 9UP       0.136000
     24 H6           2.7540     2.2100     0.2380 ha         1 9UP       0.132000
     25 H7           1.4290     4.2770     0.1760 ha         1 9UP       0.118000
     26 H8          -1.0440     4.1850     0.0080 ha         1 9UP       0.117000
     27 H9          -3.0970     2.9050    -0.1570 ha         1 9UP       0.117000
     28 H10         -4.2860     0.7610    -0.2850 ha         1 9UP       0.120000
     29 H11         -4.8200    -1.0470     0.6410 hn         1 9UP       0.460000
     30 H12         -4.8180    -2.7460     0.4540 hn         1 9UP       0.460000
     31 H13         -3.3270    -3.5710    -0.7640 hn         1 9UP       0.371400
@<TRIPOS>BOND
     1     1     2 1   
     2     1    19 1   
     3     1    20 1   
     4     1    21 1   
     5     2     3 1   
     6     3     4 2   
     7     3     5 1   
     8     5     6 1   
     9     5    22 1   
    10     6     7 ar  
    11     6     9 ar  
    12     7     8 ar  
    13     7    12 ar  
    14     8    15 ar  
    15     8    23 1   
    16     9    10 ar  
    17     9    24 1   
    18    10    11 ar  
    19    10    25 1   
    20    11    12 ar  
    21    11    26 1   
    22    12    13 ar  
    23    13    14 ar  
    24    13    27 1   
    25    14    15 ar  
    26    14    28 1   
    27    15    16 1   
    28    16    17 1   
    29    16    18 2   
    30    17    29 1   
    31    17    30 1   
    32    18    31 1   
@<TRIPOS>SUBSTRUCTURE
     1 9UP         1 TEMP              0 ****  ****    0 ROOT
