@<TRIPOS>MOLECULE
9UP
   31    32     1     0     0
SMALL
bcc


@<TRIPOS>ATOM
      1 CAA          4.5320    -2.3420    -0.2530 c3         1 9UP       0.148700
      2 OAL          3.3370    -1.8400     0.3400 os         1 9UP      -0.434900
      3 CAN          2.9070    -0.6530    -0.0830 c          1 9UP       0.760100
      4 OAD          3.4600     0.0160    -0.9250 o          1 9UP      -0.570000
      5 N1           1.7630    -0.3170     0.5670 ns         1 9UP      -0.486100
      6 CAP          1.0500     0.8720     0.3450 ca         1 9UP       0.085600
      7 CAR         -0.3520     0.7980     0.0990 ca         1 9UP      -0.060000
      8 CAJ         -1.0430    -0.4290     0.0090 ca         1 9UP      -0.067000
      9 CAF          1.6770     2.0900     0.3900 ca         1 9UP      -0.129000
     10 CAE          0.9510     3.2790     0.1900 ca         1 9UP      -0.102000
     11 CAH         -0.3990     3.2450    -0.0260 ca         1 9UP      -0.132000
     12 CAQ         -1.0780     2.0070    -0.0670 ca         1 9UP      -0.015000
     13 CAI         -2.4720     1.9380    -0.2870 ca         1 9UP      -0.124000
     14 CAG         -3.1200     0.7360    -0.3410 ca         1 9UP      -0.109000
     15 CAO         -2.4000    -0.4720    -0.1970 ca         1 9UP      -0.147900
     16 CAM         -3.0820    -1.7950    -0.2730 ce         1 9UP       0.658800
     17 N2          -4.4070    -1.7820     0.0610 nv         1 9UP      -0.962800
     18 N3          -2.4150    -2.8090    -0.6710 n2         1 9UP      -0.827100
     19 H1           4.4120    -2.5040    -1.3240 h1         1 9UP       0.050033
     20 H2           5.3770    -1.6750    -0.0820 h1         1 9UP       0.050033
     21 H3           4.7260    -3.2940     0.2330 h1         1 9UP       0.050033
     22 H4           1.3670    -0.9960     1.2000 hn         1 9UP       0.338500
     23 H5          -0.5080    -1.3650     0.0990 ha         1 9UP       0.154000
     24 H6           2.7360     2.1490     0.5980 ha         1 9UP       0.150000
     25 H7           1.4730     4.2260     0.2290 ha         1 9UP       0.136000
     26 H8          -0.9600     4.1600    -0.1670 ha         1 9UP       0.135000
     27 H9          -3.0260     2.8580    -0.4220 ha         1 9UP       0.135000
     28 H10         -4.1860     0.7180    -0.5250 ha         1 9UP       0.138000
     29 H11         -4.7280    -1.0830     0.7110 hn         1 9UP       0.404800
     30 H12         -4.8580    -2.6750     0.1840 hn         1 9UP       0.404800
     31 H13         -2.9790    -3.6540    -0.6390 hn         1 9UP       0.371400
@<TRIPOS>BOND
     1     1     2 1   
     2     1    19 1   
     3     1    20 1   
     4     1    21 1   
     5     2     3 1   
     6     3     4 2   
     7     3     5 1   
     8     5     6 1   
     9     5    22 1   
    10     6     7 ar  
    11     6     9 ar  
    12     7     8 ar  
    13     7    12 ar  
    14     8    15 ar  
    15     8    23 1   
    16     9    10 ar  
    17     9    24 1   
    18    10    11 ar  
    19    10    25 1   
    20    11    12 ar  
    21    11    26 1   
    22    12    13 ar  
    23    13    14 ar  
    24    13    27 1   
    25    14    15 ar  
    26    14    28 1   
    27    15    16 1   
    28    16    17 1   
    29    16    18 2   
    30    17    29 1   
    31    17    30 1   
    32    18    31 1   
@<TRIPOS>SUBSTRUCTURE
     1 9UP         1 TEMP              0 ****  ****    0 ROOT
