@<TRIPOS>MOLECULE
9UQ
   33    34     1     0     0
SMALL
abcg2


@<TRIPOS>ATOM
      1 C12          3.1140     0.4980    -0.8400 ca         1 9UQ      -0.179500
      2 C2          -1.2710    -0.9250     1.0050 c6         1 9UQ      -0.070400
      3 C7          -3.4140     0.2350     0.3970 c          1 9UQ       0.578000
      4 C6          -1.2190     1.0990    -0.4040 c          1 9UQ       0.579000
      5 C5          -2.7700    -1.0560     0.8040 c6         1 9UQ      -0.165400
      6 C4           0.9210    -0.1120     0.0190 ca         1 9UQ      -0.121300
      7 C3          -0.8500    -1.0760    -1.4970 c3         1 9UQ      -0.067400
      8 O2          -4.5980     0.4650     0.5130 o          1 9UQ      -0.523000
      9 O1          -0.6410     2.0730    -0.8250 o          1 9UQ      -0.509000
     10 N1          -2.5720     1.1880    -0.1320 ns         1 9UQ      -0.485500
     11 C1          -0.5770    -0.2690    -0.1960 c6         1 9UQ      -0.055700
     12 C9           1.5440    -0.4350     1.2210 ca         1 9UQ      -0.050500
     13 C11          2.9130    -0.2970     1.4030 ca         1 9UQ      -0.179500
     14 C13          3.7300     0.1770     0.3760 ca         1 9UQ       0.295000
     15 N2           5.0980     0.2720     0.5290 nv         1 9UQ      -1.067000
     16 C10          1.7490     0.3560    -1.0060 ca         1 9UQ      -0.050500
     17 H1           3.7130     0.8650    -1.6650 ha         1 9UQ       0.113000
     18 H2          -1.0920    -0.3270     1.9020 hc         1 9UQ       0.060200
     19 H3          -0.8420    -1.9070     1.2000 hc         1 9UQ       0.060200
     20 H4          -3.0110    -1.8020     0.0410 hc         1 9UQ       0.080200
     21 H5          -3.2540    -1.3970     1.7200 hc         1 9UQ       0.080200
     22 H6          -1.9170    -1.0640    -1.7290 hc         1 9UQ       0.047700
     23 H7          -0.3710    -0.5660    -2.3340 hc         1 9UQ       0.047700
     24 H8          -3.0030     2.0760    -0.3660 hn         1 9UQ       0.327500
     25 H9          -0.4890    -2.9880    -2.4120 hc         1 9UQ       0.038700
     26 H10          0.6910    -2.5750    -1.1710 hc         1 9UQ       0.038700
     27 H11         -0.9250    -3.1120    -0.7160 hc         1 9UQ       0.038700
     28 H12          0.9730    -0.8080     2.0590 ha         1 9UQ       0.111500
     29 H13          3.3500    -0.5660     2.3580 ha         1 9UQ       0.113000
     30 H14          5.5560     0.9260    -0.0850 hn         1 9UQ       0.446500
     31 H15          5.4200     0.3740     1.4780 hn         1 9UQ       0.446500
     32 H16          1.3360     0.6210    -1.9690 ha         1 9UQ       0.111500
     33 C8          -0.3640    -2.5160    -1.4370 c3         1 9UQ      -0.090100
@<TRIPOS>BOND
     1     1    14 ar  
     2     1    16 ar  
     3     1    17 1   
     4     2     5 1   
     5     2    11 1   
     6     2    18 1   
     7     2    19 1   
     8     3     5 1   
     9     3     8 2   
    10     3    10 1   
    11     4     9 2   
    12     4    10 1   
    13     4    11 1   
    14     5    20 1   
    15     5    21 1   
    16     6    11 1   
    17     6    12 ar  
    18     6    16 ar  
    19     7    11 1   
    20     7    22 1   
    21     7    23 1   
    22     7    33 1   
    23    10    24 1   
    24    12    13 ar  
    25    12    28 1   
    26    13    14 ar  
    27    13    29 1   
    28    14    15 1   
    29    15    30 1   
    30    15    31 1   
    31    16    32 1   
    32    25    33 1   
    33    26    33 1   
    34    27    33 1   
@<TRIPOS>SUBSTRUCTURE
     1 9UQ         1 TEMP              0 ****  ****    0 ROOT
