@<TRIPOS>MOLECULE
9UQ
   33    34     1     0     0
SMALL
No Charge or Current Charge


@<TRIPOS>ATOM
      1 C12          3.1170     0.5820    -0.8100 ca         1 9UQ      -0.179500
      2 C2          -1.3620    -1.0020     0.9740 c6         1 9UQ      -0.070400
      3 C7          -3.4200     0.4460     0.5770 c          1 9UQ       0.578000
      4 C6          -1.3200     1.0520    -0.5670 c          1 9UQ       0.579000
      5 C5          -2.9030    -0.9620     0.8650 c6         1 9UQ      -0.165400
      6 C4           0.9080    -0.1200     0.0160 ca         1 9UQ      -0.121300
      7 C3          -0.8110    -1.2060    -1.5410 c3         1 9UQ      -0.067400
      8 O2          -4.5290     0.8150     0.9230 o          1 9UQ      -0.523000
      9 O1          -0.8110     1.9040    -1.2770 o          1 9UQ      -0.509000
     10 N1          -2.5450     1.3090    -0.0110 ns         1 9UQ      -0.485500
     11 C1          -0.6290    -0.3260    -0.2430 c6         1 9UQ      -0.055700
     12 C9           1.5330    -0.4800     1.2400 ca         1 9UQ      -0.050500
     13 C11          2.9150    -0.2980     1.4290 ca         1 9UQ      -0.179500
     14 C13          3.7070     0.2360     0.4080 ca         1 9UQ       0.295000
     15 N2           5.0500     0.4100     0.5980 nv         1 9UQ      -1.067000
     16 C10          1.7380     0.4040    -1.0080 ca         1 9UQ      -0.050500
     17 H1           3.7250     0.9910    -1.6140 ha         1 9UQ       0.113000
     18 H2          -1.1170    -0.4490     1.8910 hc         1 9UQ       0.060200
     19 H3          -1.0150    -2.0310     1.1380 hc         1 9UQ       0.060200
     20 H4          -3.2160    -1.5910     0.0230 hc         1 9UQ       0.080200
     21 H5          -3.4070    -1.3640     1.7530 hc         1 9UQ       0.080200
     22 H6          -1.8760    -1.3250    -1.7760 hc         1 9UQ       0.047700
     23 H7          -0.4030    -0.6800    -2.4120 hc         1 9UQ       0.047700
     24 H8          -2.9100     2.2320    -0.1910 hn         1 9UQ       0.327500
     25 H9          -0.2870    -3.1000    -2.4870 hc         1 9UQ       0.038700
     26 H10          0.9010    -2.5560    -1.2880 hc         1 9UQ       0.038700
     27 H11         -0.6500    -3.2540    -0.7620 hc         1 9UQ       0.038700
     28 H12          0.9780    -0.9150     2.0640 ha         1 9UQ       0.111500
     29 H13          3.3660    -0.5800     2.3760 ha         1 9UQ       0.113000
     30 H14          5.5950     0.9260    -0.0900 hn         1 9UQ       0.446500
     31 H15          5.4510     0.2910     1.5260 hn         1 9UQ       0.446500
     32 H16          1.3220     0.6820    -1.9720 ha         1 9UQ       0.111500
     33 C8          -0.1710    -2.6130    -1.5110 c3         1 9UQ      -0.090100
@<TRIPOS>BOND
     1     1    14 ar  
     2     1    16 ar  
     3     1    17 1   
     4     2     5 1   
     5     2    11 1   
     6     2    18 1   
     7     2    19 1   
     8     3     5 1   
     9     3     8 2   
    10     3    10 1   
    11     4     9 2   
    12     4    10 1   
    13     4    11 1   
    14     5    20 1   
    15     5    21 1   
    16     6    11 1   
    17     6    12 ar  
    18     6    16 ar  
    19     7    11 1   
    20     7    22 1   
    21     7    23 1   
    22     7    33 1   
    23    10    24 1   
    24    12    13 ar  
    25    12    28 1   
    26    13    14 ar  
    27    13    29 1   
    28    14    15 1   
    29    15    30 1   
    30    15    31 1   
    31    16    32 1   
    32    25    33 1   
    33    26    33 1   
    34    27    33 1   
@<TRIPOS>SUBSTRUCTURE
     1 9UQ         1 TEMP              0 ****  ****    0 ROOT
