@<TRIPOS>MOLECULE
9US
   56    60     1     0     0
SMALL
No Charge or Current Charge


@<TRIPOS>ATOM
      1 C10         -1.2410    -3.1270    84.0470 c          1 9US       0.597600
      2 C15         -3.6630    -3.0110    84.3090 ca         1 9US       0.060600
      3 C17         -0.8510    -0.0170    86.9920 c3         1 9US       0.084300
      4 C20          5.2570    -6.2210    81.9810 c6         1 9US      -0.075200
      5 C21          5.0680    -7.0630    83.2620 c6         1 9US      -0.064400
      6 C22          3.7480    -6.6760    83.9580 c6         1 9US      -0.183400
      7 C26         -4.3190    -3.9330    85.1640 ca         1 9US      -0.013000
      8 C28         -6.2300    -3.9620    83.6360 ca         1 9US      -0.089000
      9 C01          2.5580    -2.3590    83.9020 ca         1 9US      -0.172600
     10 C02          2.6110    -1.2820    84.7960 ca         1 9US      -0.011000
     11 C03          1.4550    -0.8290    85.4300 ca         1 9US      -0.184000
     12 C04          0.2220    -1.4810    85.2350 ca         1 9US       0.136600
     13 C05          0.1260    -2.5150    84.2800 ca         1 9US      -0.211600
     14 C06          1.3020    -2.9430    83.5780 ca         1 9US       0.084700
     15 C08         -2.2540    -1.4200    85.4970 c          1 9US       0.624000
     16 C11          1.2220    -3.9420    82.4120 c3         1 9US      -0.056800
     17 C12          3.8690    -2.8150    83.3140 c          1 9US       0.640900
     18 C18          4.2050    -4.2610    83.2210 ce         1 9US      -0.496400
     19 C19          4.9280    -4.7480    82.1880 c2         1 9US       0.289900
     20 C23          3.7150    -5.1800    84.2810 c          1 9US       0.610300
     21 C27         -5.6090    -4.4040    84.8180 ca         1 9US      -0.033000
     22 C29         -5.5730    -3.0530    82.7920 ca         1 9US      -0.105000
     23 C30         -4.2950    -2.5800    83.1280 ca         1 9US      -0.081000
     24 C31         -3.7130    -4.3980    86.3540 ca         1 9US      -0.088000
     25 C32         -4.3850    -5.3120    87.1840 ca         1 9US      -0.105000
     26 C33         -5.6640    -5.7720    86.8360 ca         1 9US      -0.106000
     27 C34         -6.2750    -5.3190    85.6560 ca         1 9US      -0.098000
     28 N07         -0.9690    -0.9750    85.8580 n          1 9US      -0.303000
     29 N09         -2.3540    -2.4970    84.6150 n          1 9US      -0.306600
     30 O13         -1.3970    -4.1620    83.4130 o          1 9US      -0.507000
     31 O14          4.6040    -1.9990    82.7680 o          1 9US      -0.597100
     32 O16         -3.2610    -0.8980    85.9610 o          1 9US      -0.539000
     33 O24          5.4160    -3.9710    81.2180 oh         1 9US      -0.538100
     34 O25          3.3120    -4.7820    85.3620 o          1 9US      -0.535100
     35 H1          -1.7640     0.0100    87.6000 h1         1 9US       0.057700
     36 H2          -0.0300    -0.3200    87.6540 h1         1 9US       0.057700
     37 H3          -0.6530     0.9900    86.6050 h1         1 9US       0.057700
     38 H5           6.2870    -6.3300    81.6160 hc         1 9US       0.080700
     39 H6           5.0770    -8.1340    83.0170 hc         1 9US       0.056200
     40 H7           5.9100    -6.8880    83.9480 hc         1 9US       0.056200
     41 H8           3.5440    -7.2690    84.8590 hc         1 9US       0.073200
     42 H9           2.9480    -6.8570    83.2280 hc         1 9US       0.073200
     43 H10         -7.2200    -4.3230    83.3680 ha         1 9US       0.114000
     44 H11          3.5620    -0.7950    85.0090 ha         1 9US       0.120000
     45 H12          1.5490     0.0240    86.0950 ha         1 9US       0.126000
     46 H13          1.1130    -4.9710    82.7730 hc         1 9US       0.059033
     47 H14          0.3780    -3.7150    81.7520 hc         1 9US       0.059033
     48 H15          2.0940    -3.9060    81.7520 hc         1 9US       0.059033
     49 H18         -6.0550    -2.7140    81.8770 ha         1 9US       0.116000
     50 H19         -3.7920    -1.8750    82.4700 ha         1 9US       0.121000
     51 H20         -2.7220    -4.0610    86.6460 ha         1 9US       0.116000
     52 H21         -3.9110    -5.6640    88.0980 ha         1 9US       0.112000
     53 H22         -6.1820    -6.4790    87.4800 ha         1 9US       0.112000
     54 H23         -7.2660    -5.6820    85.3920 ha         1 9US       0.112000
     55 H24          5.2490    -3.0470    81.5360 ho         1 9US       0.549000
     56 H4           4.6070    -6.6120    81.1860 hc         1 9US       0.080700
@<TRIPOS>BOND
     1     1    13 1   
     2     1    29 1   
     3     1    30 2   
     4     2     7 ar  
     5     2    23 ar  
     6     2    29 1   
     7     3    28 1   
     8     3    35 1   
     9     3    36 1   
    10     3    37 1   
    11     4     5 1   
    12     4    19 1   
    13     4    38 1   
    14     4    56 1   
    15     5     6 1   
    16     5    39 1   
    17     5    40 1   
    18     6    20 1   
    19     6    41 1   
    20     6    42 1   
    21     7    21 ar  
    22     7    24 ar  
    23     8    21 ar  
    24     8    22 ar  
    25     8    43 1   
    26     9    10 ar  
    27     9    14 ar  
    28     9    17 1   
    29    10    11 ar  
    30    10    44 1   
    31    11    12 ar  
    32    11    45 1   
    33    12    13 ar  
    34    12    28 1   
    35    13    14 ar  
    36    14    16 1   
    37    15    28 1   
    38    15    29 1   
    39    15    32 2   
    40    16    46 1   
    41    16    47 1   
    42    16    48 1   
    43    17    18 1   
    44    17    31 2   
    45    18    19 2   
    46    18    20 1   
    47    19    33 1   
    48    20    34 2   
    49    21    27 ar  
    50    22    23 ar  
    51    22    49 1   
    52    23    50 1   
    53    24    25 ar  
    54    24    51 1   
    55    25    26 ar  
    56    25    52 1   
    57    26    27 ar  
    58    26    53 1   
    59    27    54 1   
    60    33    55 1   
@<TRIPOS>SUBSTRUCTURE
     1 9US         1 TEMP              0 ****  ****    0 ROOT
