@<TRIPOS>MOLECULE
9US
   56    60     1     0     0
SMALL
bcc


@<TRIPOS>ATOM
      1 C10         -1.5240    -3.0110    83.8620 c          1 9US       0.740100
      2 C15         -3.8380    -2.7140    84.4440 ca         1 9US       0.060600
      3 C17         -0.5780    -0.1860    86.9170 c3         1 9US       0.084300
      4 C20          5.9930    -5.9770    82.4130 c6         1 9US      -0.075200
      5 C21          5.8120    -6.5930    83.7880 c6         1 9US      -0.064400
      6 C22          4.3340    -6.7430    84.0970 c6         1 9US      -0.183400
      7 C26         -4.4130    -3.7890    85.1660 ca         1 9US      -0.013000
      8 C28         -6.5080    -3.3440    83.9800 ca         1 9US      -0.107000
      9 C01          2.2160    -2.7450    83.5980 ca         1 9US      -0.172600
     10 C02          2.4630    -1.7950    84.5800 ca         1 9US      -0.029000
     11 C03          1.4420    -1.2680    85.3380 ca         1 9US      -0.202000
     12 C04          0.1290    -1.6730    85.1000 ca         1 9US       0.136600
     13 C05         -0.1330    -2.6160    84.0900 ca         1 9US      -0.211600
     14 C06          0.9190    -3.1650    83.3270 ca         1 9US       0.084700
     15 C08         -2.2120    -1.4520    85.6630 c          1 9US       0.833500
     16 C11          0.6980    -4.1780    82.2400 c3         1 9US      -0.056800
     17 C12          3.3960    -3.1900    82.7970 c          1 9US       0.640900
     18 C18          4.0570    -4.4580    83.0160 ce         1 9US      -0.496400
     19 C19          5.2000    -4.7260    82.2630 c2         1 9US       0.289900
     20 C23          3.5710    -5.4440    83.9890 c          1 9US       0.610300
     21 C27         -5.7760    -4.1020    84.9230 ca         1 9US      -0.033000
     22 C29         -5.9150    -2.3170    83.3000 ca         1 9US      -0.123000
     23 C30         -4.5640    -2.0000    83.5350 ca         1 9US      -0.099000
     24 C31         -3.6930    -4.5570    86.1110 ca         1 9US      -0.106000
     25 C32         -4.3000    -5.5850    86.7790 ca         1 9US      -0.123000
     26 C33         -5.6540    -5.8970    86.5390 ca         1 9US      -0.124000
     27 C34         -6.3740    -5.1700    85.6320 ca         1 9US      -0.116000
     28 N07         -0.8980    -1.1360    85.8610 n          1 9US      -0.370000
     29 N09         -2.4660    -2.3760    84.6630 n          1 9US      -0.440600
     30 O13         -1.9030    -3.8270    83.0510 o          1 9US      -0.582500
     31 O14          3.8250    -2.3810    81.9610 o          1 9US      -0.597100
     32 O16         -3.1220    -0.9750    86.3060 o          1 9US      -0.614500
     33 O24          5.6440    -3.8990    81.3730 oh         1 9US      -0.499100
     34 O25          2.5750    -5.2610    84.6640 o          1 9US      -0.535100
     35 H1          -1.4890     0.1050    87.4250 h1         1 9US       0.057700
     36 H2           0.0950    -0.6380    87.6440 h1         1 9US       0.057700
     37 H3          -0.1120     0.7070    86.5020 h1         1 9US       0.057700
     38 H5           7.0400    -5.7620    82.1960 hc         1 9US       0.080700
     39 H6           6.3070    -7.5630    83.8250 hc         1 9US       0.056200
     40 H7           6.2910    -5.9630    84.5410 hc         1 9US       0.056200
     41 H8           4.1680    -7.1590    85.0910 hc         1 9US       0.073200
     42 H9           3.8800    -7.4420    83.3830 hc         1 9US       0.073200
     43 H10         -7.5480    -3.5910    83.8040 ha         1 9US       0.132000
     44 H11          3.4770    -1.4660    84.7730 ha         1 9US       0.138000
     45 H12          1.6820    -0.5420    86.0980 ha         1 9US       0.144000
     46 H13          0.2510    -5.0910    82.6270 hc         1 9US       0.059033
     47 H14          0.0380    -3.7990    81.4620 hc         1 9US       0.059033
     48 H15          1.6350    -4.4530    81.7600 hc         1 9US       0.059033
     49 H18         -6.4780    -1.7410    82.5780 ha         1 9US       0.134000
     50 H19         -4.0980    -1.1860    82.9940 ha         1 9US       0.139000
     51 H20         -2.6520    -4.3350    86.3090 ha         1 9US       0.134000
     52 H21         -3.7380    -6.1650    87.4980 ha         1 9US       0.130000
     53 H22         -6.1200    -6.7120    87.0760 ha         1 9US       0.130000
     54 H23         -7.4150    -5.4030    85.4420 ha         1 9US       0.130000
     55 H24          5.0180    -3.1000    81.3750 ho         1 9US       0.510000
     56 H4           5.6520    -6.6750    81.6390 hc         1 9US       0.080700
@<TRIPOS>BOND
     1     1    13 1   
     2     1    29 1   
     3     1    30 2   
     4     2     7 ar  
     5     2    23 ar  
     6     2    29 1   
     7     3    28 1   
     8     3    35 1   
     9     3    36 1   
    10     3    37 1   
    11     4     5 1   
    12     4    19 1   
    13     4    38 1   
    14     4    56 1   
    15     5     6 1   
    16     5    39 1   
    17     5    40 1   
    18     6    20 1   
    19     6    41 1   
    20     6    42 1   
    21     7    21 ar  
    22     7    24 ar  
    23     8    21 ar  
    24     8    22 ar  
    25     8    43 1   
    26     9    10 ar  
    27     9    14 ar  
    28     9    17 1   
    29    10    11 ar  
    30    10    44 1   
    31    11    12 ar  
    32    11    45 1   
    33    12    13 ar  
    34    12    28 1   
    35    13    14 ar  
    36    14    16 1   
    37    15    28 1   
    38    15    29 1   
    39    15    32 2   
    40    16    46 1   
    41    16    47 1   
    42    16    48 1   
    43    17    18 1   
    44    17    31 2   
    45    18    19 2   
    46    18    20 1   
    47    19    33 1   
    48    20    34 2   
    49    21    27 ar  
    50    22    23 ar  
    51    22    49 1   
    52    23    50 1   
    53    24    25 ar  
    54    24    51 1   
    55    25    26 ar  
    56    25    52 1   
    57    26    27 ar  
    58    26    53 1   
    59    27    54 1   
    60    33    55 1   
@<TRIPOS>SUBSTRUCTURE
     1 9US         1 TEMP              0 ****  ****    0 ROOT
