@<TRIPOS>MOLECULE
9UU
   21    22     1     0     0
SMALL
No Charge or Current Charge


@<TRIPOS>ATOM
      1 C2          -2.2090     6.0560   -12.9890 ca         1 9UU       0.007600
      2 C3          -2.6370     4.8430   -15.1450 c          1 9UU       0.557200
      3 C4          -0.9030     6.3990   -15.1060 c          1 9UU       0.557200
      4 C5          -2.4740     5.0060   -12.0830 ca         1 9UU      -0.051500
      5 C6          -2.2270     7.3860   -12.5170 ca         1 9UU      -0.051500
      6 C7          -0.9860     5.8110   -16.4420 cc         1 9UU      -0.233700
      7 C8          -2.7510     5.2820   -10.7320 ca         1 9UU      -0.172000
      8 C9          -2.5060     7.6580   -11.1660 ca         1 9UU      -0.172000
      9 C10         -2.7670     6.6090   -10.2750 ca         1 9UU       0.151100
     10 O1          -3.5850     4.1560   -14.7960 o          1 9UU      -0.464000
     11 O2          -3.0360     6.8850    -8.9680 oh         1 9UU      -0.530100
     12 C11         -2.0060     4.8920   -16.4660 cd         1 9UU      -0.233700
     13 N2          -1.9240     5.7740   -14.3730 n          1 9UU      -0.318600
     14 H1          -2.4530     3.9730   -12.4200 ha         1 9UU       0.123500
     15 H2          -2.0390     8.2130   -13.1970 ha         1 9UU       0.123500
     16 H3          -0.3110     6.0990   -17.2410 ha         1 9UU       0.226000
     17 H4          -2.9500     4.4600   -10.0480 ha         1 9UU       0.125500
     18 H5          -2.5210     8.6860   -10.8120 ha         1 9UU       0.125500
     19 H6          -3.1930     6.0390    -8.4970 ho         1 9UU       0.468000
     20 H7          -2.3510     4.2710   -17.2870 ha         1 9UU       0.226000
     21 O4          -0.1080     7.2370   -14.7070 o          1 9UU      -0.464000
@<TRIPOS>BOND
     1     1     4 ar  
     2     1     5 ar  
     3     1    13 1   
     4     2    10 2   
     5     2    12 1   
     6     2    13 1   
     7     3     6 1   
     8     3    13 1   
     9     3    21 2   
    10     4     7 ar  
    11     4    14 1   
    12     5     8 ar  
    13     5    15 1   
    14     6    12 2   
    15     6    16 1   
    16     7     9 ar  
    17     7    17 1   
    18     8     9 ar  
    19     8    18 1   
    20     9    11 1   
    21    11    19 1   
    22    12    20 1   
@<TRIPOS>SUBSTRUCTURE
     1 9UU         1 TEMP              0 ****  ****    0 ROOT
