@<TRIPOS>MOLECULE
9UU
   21    22     1     0     0
SMALL
abcg2


@<TRIPOS>ATOM
      1 C2          -2.2280     6.0500   -12.9770 ca         1 9UU       0.007600
      2 C3          -2.8160     5.1810   -15.2280 c          1 9UU       0.557200
      3 C4          -0.7370     6.0750   -14.9600 c          1 9UU       0.557200
      4 C5          -2.1950     5.0270   -12.0410 ca         1 9UU      -0.051500
      5 C6          -2.5400     7.3420   -12.5740 ca         1 9UU      -0.051500
      6 C7          -0.8790     5.6160   -16.3720 cc         1 9UU      -0.233700
      7 C8          -2.4770     5.2880   -10.7100 ca         1 9UU      -0.172000
      8 C9          -2.8130     7.6130   -11.2450 ca         1 9UU      -0.172000
      9 C10         -2.7840     6.5850   -10.3030 ca         1 9UU       0.151100
     10 O1          -3.9330     4.8170   -14.9750 o          1 9UU      -0.464000
     11 O2          -3.0600     6.9020    -9.0270 oh         1 9UU      -0.530100
     12 C11         -2.0890     5.0930   -16.5270 cd         1 9UU      -0.233700
     13 N2          -1.9390     5.7790   -14.3350 n          1 9UU      -0.318600
     14 H1          -1.9470     4.0200   -12.3490 ha         1 9UU       0.123500
     15 H2          -2.5720     8.1420   -13.3020 ha         1 9UU       0.123500
     16 H3          -0.0890     5.7190   -17.1000 ha         1 9UU       0.226000
     17 H4          -2.4510     4.4790    -9.9890 ha         1 9UU       0.125500
     18 H5          -3.0520     8.6220   -10.9340 ha         1 9UU       0.125500
     19 H6          -3.0180     6.1210    -8.4630 ho         1 9UU       0.468000
     20 H7          -2.5300     4.6660   -17.4150 ha         1 9UU       0.226000
     21 O4           0.2110     6.5990   -14.4390 o          1 9UU      -0.464000
@<TRIPOS>BOND
     1     1     4 ar  
     2     1     5 ar  
     3     1    13 1   
     4     2    10 2   
     5     2    12 1   
     6     2    13 1   
     7     3     6 1   
     8     3    13 1   
     9     3    21 2   
    10     4     7 ar  
    11     4    14 1   
    12     5     8 ar  
    13     5    15 1   
    14     6    12 2   
    15     6    16 1   
    16     7     9 ar  
    17     7    17 1   
    18     8     9 ar  
    19     8    18 1   
    20     9    11 1   
    21    11    19 1   
    22    12    20 1   
@<TRIPOS>SUBSTRUCTURE
     1 9UU         1 TEMP              0 ****  ****    0 ROOT
