@<TRIPOS>MOLECULE
9UV
   65    68     1     0     0
SMALL
No Charge or Current Charge


@<TRIPOS>ATOM
      1 C17        468.0410   -19.9750   129.8610 cg         1 9UV       0.267700
      2 C15        467.6020   -19.1750   128.7620 ce         1 9UV      -0.100700
      3 C00        466.6010   -18.2480   119.7270 ca         1 9UV      -0.281000
      4 C01        467.4650   -17.5660   118.8450 ca         1 9UV       0.192100
      5 C02        468.7400   -17.1770   119.2780 ca         1 9UV      -0.173000
      6 C03        469.1620   -17.4600   120.5860 ca         1 9UV      -0.036000
      7 C04        468.3050   -18.1260   121.4760 ca         1 9UV       0.013100
      8 C05        467.0160   -18.5350   121.0480 ca         1 9UV       0.167100
      9 O0A        468.7790   -18.4060   122.7420 os         1 9UV      -0.226200
     10 O0B        466.1930   -19.2060   121.9350 os         1 9UV      -0.342100
     11 C0C        468.1130   -18.0730   123.9030 ca         1 9UV       0.158100
     12 C0D        467.1470   -17.0510   123.9360 ca         1 9UV      -0.166000
     13 C0E        466.4920   -16.7560   125.1390 ca         1 9UV       0.143000
     14 C0F        466.8040   -17.4630   126.3120 ca         1 9UV      -0.127000
     15 C0G        467.7870   -18.4750   126.2950 ca         1 9UV      -0.037800
     16 C0H        468.4390   -18.7660   125.0800 ca         1 9UV      -0.129000
     17 C0M        468.1420   -19.2370   127.5100 cf         1 9UV      -0.110200
     18 C0O        464.8980   -19.7170   121.5600 c3         1 9UV       0.139600
     19 C0P        464.2180   -20.3230   122.8070 c3         1 9UV       0.108000
     20 N0S        465.0130   -21.3800   123.4820 n          1 9UV      -0.306000
     21 C0V        464.8360   -22.7260   123.0930 c          1 9UV       0.617000
     22 N0W        465.5760   -23.6470   123.7670 ns         1 9UV      -0.467500
     23 C0X        466.4600   -23.4380   124.7750 c          1 9UV       0.591200
     24 C0Y        466.5980   -22.0330   125.1460 cc         1 9UV      -0.383200
     25 C0Z        465.8870   -21.0420   124.5100 cd         1 9UV       0.017600
     26 O10        464.0760   -23.0710   122.2030 o          1 9UV      -0.565000
     27 O12        467.0690   -24.3490   125.3060 o          1 9UV      -0.521000
     28 N19        468.4290   -20.6460   130.7320 n1         1 9UV      -0.440000
     29 C1A        465.8290   -17.6110   116.9950 c3         1 9UV       0.161600
     30 C1B        465.7820   -17.1080   115.5310 c3         1 9UV       0.162800
     31 N1E        464.4760   -17.2910   114.8350 n3         1 9UV      -0.719600
     32 C1H        464.4400   -16.6040   113.5050 c6         1 9UV       0.125300
     33 C1I        464.0560   -18.7240   114.6950 c6         1 9UV       0.125300
     34 C1J        463.0640   -16.7820   112.7970 c6         1 9UV       0.152600
     35 C1N        462.6900   -18.8580   113.9590 c6         1 9UV       0.152600
     36 O1Q        462.7390   -18.1870   112.6770 os         1 9UV      -0.446000
     37 H1         466.7850   -18.4920   128.9820 ha         1 9UV       0.203000
     38 H2         465.6190   -18.5530   119.3870 ha         1 9UV       0.127000
     39 H3         469.4050   -16.6560   118.5940 ha         1 9UV       0.138000
     40 H4         470.1560   -17.1610   120.9140 ha         1 9UV       0.136000
     41 H5         466.8970   -16.4910   123.0400 ha         1 9UV       0.144000
     42 H6         466.2790   -17.2090   127.2270 ha         1 9UV       0.134000
     43 H7         469.1960   -19.5450   125.0380 ha         1 9UV       0.140000
     44 H8         468.9580   -19.9490   127.3630 ha         1 9UV       0.191000
     45 H9         464.2590   -18.9140   121.1710 h1         1 9UV       0.058200
     46 H10        464.9970   -20.4900   120.7880 h1         1 9UV       0.058200
     47 H11        464.0220   -19.5140   123.5220 h1         1 9UV       0.076700
     48 H12        463.2390   -20.7250   122.5160 h1         1 9UV       0.076700
     49 H13        465.4490   -24.6050   123.4830 hn         1 9UV       0.342500
     50 H14        467.2920   -21.8220   125.9510 ha         1 9UV       0.222000
     51 H15        465.9410   -19.9800   124.7370 h4         1 9UV       0.211000
     52 H16        465.0190   -17.1370   117.5640 h1         1 9UV       0.043700
     53 H17        465.6880   -18.6990   117.0170 h1         1 9UV       0.043700
     54 H18        466.5780   -17.6140   114.9680 h1         1 9UV       0.049700
     55 H19        466.0330   -16.0390   115.5470 h1         1 9UV       0.049700
     56 H21        465.2260   -17.0040   112.8470 h1         1 9UV       0.042950
     57 H22        464.6370   -15.5290   113.6250 h1         1 9UV       0.042950
     58 H23        463.9610   -19.2000   115.6820 h1         1 9UV       0.042950
     59 H24        464.8150   -19.2910   114.1350 h1         1 9UV       0.042950
     60 H25        463.0970   -16.3320   111.7950 h1         1 9UV       0.052450
     61 H26        462.2770   -16.2740   113.3740 h1         1 9UV       0.052450
     62 H27        461.8900   -18.4160   114.5700 h1         1 9UV       0.052450
     63 H28        462.4520   -19.9200   113.8010 h1         1 9UV       0.052450
     64 Cl0J       465.2700   -15.4930   125.1780 cl         1 9UV      -0.197000
     65 O07        467.1110   -17.2600   117.5470 os         1 9UV      -0.346100
@<TRIPOS>BOND
     1     1     2 1   
     2     1    28 3   
     3     2    17 2   
     4     2    37 1   
     5     3     4 ar  
     6     3     8 ar  
     7     3    38 1   
     8     4     5 ar  
     9     4    65 1   
    10     5     6 ar  
    11     5    39 1   
    12     6     7 ar  
    13     6    40 1   
    14     7     8 ar  
    15     7     9 1   
    16     8    10 1   
    17     9    11 1   
    18    10    18 1   
    19    11    12 ar  
    20    11    16 ar  
    21    12    13 ar  
    22    12    41 1   
    23    13    14 ar  
    24    13    64 1   
    25    14    15 ar  
    26    14    42 1   
    27    15    16 ar  
    28    15    17 1   
    29    16    43 1   
    30    17    44 1   
    31    18    19 1   
    32    18    45 1   
    33    18    46 1   
    34    19    20 1   
    35    19    47 1   
    36    19    48 1   
    37    20    21 1   
    38    20    25 1   
    39    21    22 1   
    40    21    26 2   
    41    22    23 1   
    42    22    49 1   
    43    23    24 1   
    44    23    27 2   
    45    24    25 2   
    46    24    50 1   
    47    25    51 1   
    48    29    30 1   
    49    29    52 1   
    50    29    53 1   
    51    29    65 1   
    52    30    31 1   
    53    30    54 1   
    54    30    55 1   
    55    31    32 1   
    56    31    33 1   
    57    32    34 1   
    58    32    56 1   
    59    32    57 1   
    60    33    35 1   
    61    33    58 1   
    62    33    59 1   
    63    34    36 1   
    64    34    60 1   
    65    34    61 1   
    66    35    36 1   
    67    35    62 1   
    68    35    63 1   
@<TRIPOS>SUBSTRUCTURE
     1 9UV         1 TEMP              0 ****  ****    0 ROOT
