@<TRIPOS>MOLECULE
9UV
   65    68     1     0     0
SMALL
bcc


@<TRIPOS>ATOM
      1 C17        468.1560   -19.9720   129.6750 cg         1 9UV       0.178500
      2 C15        467.7250   -19.1200   128.6250 ce         1 9UV      -0.050700
      3 C00        466.4960   -18.2300   119.7270 ca         1 9UV      -0.299000
      4 C01        467.3670   -17.5320   118.8900 ca         1 9UV       0.192100
      5 C02        468.6280   -17.1600   119.3490 ca         1 9UV      -0.191000
      6 C03        469.0140   -17.4990   120.6340 ca         1 9UV      -0.054000
      7 C04        468.1660   -18.2080   121.4640 ca         1 9UV       0.013100
      8 C05        466.8950   -18.5730   121.0160 ca         1 9UV       0.167100
      9 O0A        468.6170   -18.6310   122.6900 os         1 9UV      -0.226200
     10 O0B        466.1260   -19.2360   121.8930 os         1 9UV      -0.318900
     11 C0C        468.0490   -18.1730   123.8290 ca         1 9UV       0.158100
     12 C0D        467.1990   -17.0780   123.8800 ca         1 9UV      -0.184000
     13 C0E        466.6810   -16.7060   125.1140 ca         1 9UV       0.051400
     14 C0F        466.9810   -17.3800   126.2810 ca         1 9UV      -0.145000
     15 C0G        467.8490   -18.4750   126.2150 ca         1 9UV      -0.037800
     16 C0H        468.3800   -18.8620   124.9900 ca         1 9UV      -0.147000
     17 C0M        468.2140   -19.2650   127.3860 cf         1 9UV      -0.060200
     18 C0O        464.8310   -19.6550   121.5060 c3         1 9UV       0.116400
     19 C0P        464.1430   -20.2000   122.7380 c3         1 9UV       0.108000
     20 N0S        464.8810   -21.2760   123.3820 n          1 9UV      -0.373000
     21 C0V        464.8160   -22.5410   122.8370 c          1 9UV       0.826500
     22 N0W        465.5470   -23.4910   123.5010 ns         1 9UV      -0.601500
     23 C0X        466.3360   -23.3250   124.6320 c          1 9UV       0.733700
     24 C0Y        466.3580   -21.9680   125.1190 cc         1 9UV      -0.333200
     25 C0Z        465.6460   -21.0230   124.4830 cd         1 9UV       0.067600
     26 O10        464.1600   -22.7950   121.8480 o          1 9UV      -0.640500
     27 O12        466.9240   -24.2710   125.1190 o          1 9UV      -0.596500
     28 N19        468.4970   -20.6580   130.5380 n1         1 9UV      -0.350800
     29 C1A        465.8160   -17.5870   117.0810 c3         1 9UV       0.138400
     30 C1B        465.8000   -17.1270   115.6340 c3         1 9UV       0.162800
     31 N1E        464.5360   -17.4280   114.9930 n3         1 9UV      -0.719600
     32 C1H        464.3460   -16.6290   113.7950 c6         1 9UV       0.125300
     33 C1I        464.3890   -18.8370   114.6670 c6         1 9UV       0.125300
     34 C1J        462.9950   -16.9280   113.1730 c6         1 9UV       0.129400
     35 C1N        463.0380   -19.0860   114.0210 c6         1 9UV       0.129400
     36 O1Q        462.8550   -18.2980   112.8680 os         1 9UV      -0.399600
     37 H1         466.9880   -18.3740   128.8930 ha         1 9UV       0.153000
     38 H2         465.5130   -18.5120   119.3770 ha         1 9UV       0.145000
     39 H3         469.3010   -16.6140   118.7000 ha         1 9UV       0.156000
     40 H4         469.9970   -17.2240   120.9940 ha         1 9UV       0.154000
     41 H5         466.9420   -16.5180   122.9910 ha         1 9UV       0.162000
     42 H6         466.5520   -17.0540   127.2180 ha         1 9UV       0.152000
     43 H7         469.0460   -19.7150   124.9300 ha         1 9UV       0.158000
     44 H8         468.9450   -20.0470   127.2080 ha         1 9UV       0.141000
     45 H9         464.2340   -18.8160   121.1330 h1         1 9UV       0.058200
     46 H10        464.8920   -20.4070   120.7150 h1         1 9UV       0.058200
     47 H11        464.0120   -19.4070   123.4740 h1         1 9UV       0.076700
     48 H12        463.1490   -20.5490   122.4620 h1         1 9UV       0.076700
     49 H13        465.4970   -24.4240   123.1120 hn         1 9UV       0.342500
     50 H14        466.9400   -21.7240   125.9950 ha         1 9UV       0.172000
     51 H15        465.6330   -20.0000   124.8310 h4         1 9UV       0.161000
     52 H16        464.9830   -17.1280   117.6230 h1         1 9UV       0.043700
     53 H17        465.7070   -18.6740   117.1570 h1         1 9UV       0.043700
     54 H18        466.6540   -17.5670   115.0930 h1         1 9UV       0.049700
     55 H19        465.9390   -16.0430   115.6190 h1         1 9UV       0.049700
     56 H21        465.1400   -16.8120   113.0510 h1         1 9UV       0.042950
     57 H22        464.3860   -15.5690   114.0560 h1         1 9UV       0.042950
     58 H23        464.4470   -19.4460   115.5710 h1         1 9UV       0.042950
     59 H24        465.1930   -19.1810   113.9930 h1         1 9UV       0.042950
     60 H25        462.8810   -16.3710   112.2420 h1         1 9UV       0.052450
     61 H26        462.1990   -16.6040   113.8600 h1         1 9UV       0.052450
     62 H27        462.2450   -18.8850   114.7560 h1         1 9UV       0.052450
     63 H28        462.9590   -20.1310   113.7190 h1         1 9UV       0.052450
     64 CL0J       465.6170   -15.3420   125.1810 cl         1 9UV      -0.105400
     65 O07        467.0600   -17.1830   117.6280 os         1 9UV      -0.322900
@<TRIPOS>BOND
     1     1     2 1   
     2     1    28 3   
     3     2    17 2   
     4     2    37 1   
     5     3     4 ar  
     6     3     8 ar  
     7     3    38 1   
     8     4     5 ar  
     9     4    65 1   
    10     5     6 ar  
    11     5    39 1   
    12     6     7 ar  
    13     6    40 1   
    14     7     8 ar  
    15     7     9 1   
    16     8    10 1   
    17     9    11 1   
    18    10    18 1   
    19    11    12 ar  
    20    11    16 ar  
    21    12    13 ar  
    22    12    41 1   
    23    13    14 ar  
    24    13    64 1   
    25    14    15 ar  
    26    14    42 1   
    27    15    16 ar  
    28    15    17 1   
    29    16    43 1   
    30    17    44 1   
    31    18    19 1   
    32    18    45 1   
    33    18    46 1   
    34    19    20 1   
    35    19    47 1   
    36    19    48 1   
    37    20    21 1   
    38    20    25 1   
    39    21    22 1   
    40    21    26 2   
    41    22    23 1   
    42    22    49 1   
    43    23    24 1   
    44    23    27 2   
    45    24    25 2   
    46    24    50 1   
    47    25    51 1   
    48    29    30 1   
    49    29    52 1   
    50    29    53 1   
    51    29    65 1   
    52    30    31 1   
    53    30    54 1   
    54    30    55 1   
    55    31    32 1   
    56    31    33 1   
    57    32    34 1   
    58    32    56 1   
    59    32    57 1   
    60    33    35 1   
    61    33    58 1   
    62    33    59 1   
    63    34    36 1   
    64    34    60 1   
    65    34    61 1   
    66    35    36 1   
    67    35    62 1   
    68    35    63 1   
@<TRIPOS>SUBSTRUCTURE
     1 9UV         1 TEMP              0 ****  ****    0 ROOT
