@<TRIPOS>MOLECULE
9UW
    9     9     1     0     0
SMALL
No Charge or Current Charge


@<TRIPOS>ATOM
      1 O7          -2.6820    -0.7510    -0.0360 o          1 9UW      -0.442000
      2 C7          -1.5850    -0.2100    -0.0040 c          1 9UW       0.415700
      3 C1          -1.1840     1.2050     0.0170 cc         1 9UW       0.386200
      4 N2           0.1380     1.3390     0.0530 nd         1 9UW      -0.507100
      5 C8           0.6990     0.0480     0.0590 cs         1 9UW       0.421800
      6 N1          -0.3600    -0.8050     0.0250 ns         1 9UW      -0.436500
      7 S8           2.3160    -0.3500     0.0990 s          1 9UW      -0.286400
      8 H1          -1.8930     2.0200     0.0040 h4         1 9UW       0.075800
      9 H2          -0.2490    -1.8110     0.0210 hn         1 9UW       0.373500
@<TRIPOS>BOND
     1     1     2 2   
     2     2     3 1   
     3     2     6 1   
     4     3     4 2   
     5     3     8 1   
     6     4     5 1   
     7     5     6 1   
     8     5     7 2   
     9     6     9 1   
@<TRIPOS>SUBSTRUCTURE
     1 9UW         1 TEMP              0 ****  ****    0 ROOT
