@<TRIPOS>MOLECULE
9UW
    9     9     1     0     0
SMALL
abcg2


@<TRIPOS>ATOM
      1 O7          -2.6700    -0.7070    -0.0360 o          1 9UW      -0.442000
      2 C7          -1.5690    -0.2300    -0.0030 c          1 9UW       0.415700
      3 C1          -1.1540     1.2160     0.0180 cc         1 9UW       0.386200
      4 N2           0.1110     1.3420     0.0530 nd         1 9UW      -0.507100
      5 C8           0.6600     0.0340     0.0580 cs         1 9UW       0.421800
      6 N1          -0.3540    -0.8720     0.0240 ns         1 9UW      -0.436500
      7 S8           2.2470    -0.2720     0.0970 s          1 9UW      -0.286400
      8 H1          -1.8450     2.0490     0.0050 h4         1 9UW       0.075800
      9 H2          -0.2250    -1.8740     0.0210 hn         1 9UW       0.373500
@<TRIPOS>BOND
     1     1     2 2   
     2     2     3 1   
     3     2     6 1   
     4     3     4 2   
     5     3     8 1   
     6     4     5 1   
     7     5     6 1   
     8     5     7 2   
     9     6     9 1   
@<TRIPOS>SUBSTRUCTURE
     1 9UW         1 TEMP              0 ****  ****    0 ROOT
