@<TRIPOS>MOLECULE
9UZ
   15    15     1     0     0
SMALL
abcg2


@<TRIPOS>ATOM
      1 O05         -2.2310    -1.0650    -0.0260 o          1 9UZ      -0.517000
      2 C04         -1.2320    -0.3820     0.0270 c          1 9UZ       0.577000
      3 N03          0.0130    -0.9730    -0.0460 ns         1 9UZ      -0.484500
      4 C06         -1.2470     1.1110     0.1910 c6         1 9UZ      -0.164400
      5 C07         -0.0050     1.7680    -0.3860 c6         1 9UZ      -0.071400
      6 C08          1.2440     1.1280     0.1950 c6         1 9UZ      -0.164400
      7 C02          1.2500    -0.3660     0.0330 c          1 9UZ       0.577000
      8 O01          2.2570    -1.0360    -0.0130 o          1 9UZ      -0.517000
      9 H1           0.0200    -1.9820    -0.1380 hn         1 9UZ       0.329500
     10 H2          -2.1600     1.4940    -0.2630 hc         1 9UZ       0.079700
     11 H3          -1.3180     1.3160     1.2650 hc         1 9UZ       0.079700
     12 H4          -0.0020     1.6690    -1.4740 hc         1 9UZ       0.059200
     13 H5          -0.0120     2.8350    -0.1660 hc         1 9UZ       0.059200
     14 H6           2.1530     1.5220    -0.2580 hc         1 9UZ       0.079700
     15 H7           1.3100     1.3350     1.2690 hc         1 9UZ       0.079700
@<TRIPOS>BOND
     1     1     2 2   
     2     2     3 1   
     3     2     4 1   
     4     3     7 1   
     5     3     9 1   
     6     4     5 1   
     7     4    10 1   
     8     4    11 1   
     9     5     6 1   
    10     5    12 1   
    11     5    13 1   
    12     6     7 1   
    13     6    14 1   
    14     6    15 1   
    15     7     8 2   
@<TRIPOS>SUBSTRUCTURE
     1 9UZ         1 TEMP              0 ****  ****    0 ROOT
