@<TRIPOS>MOLECULE
9UZ
   15    15     1     0     0
SMALL
No Charge or Current Charge


@<TRIPOS>ATOM
      1 O05         -2.2350    -1.0950    -0.0370 o          1 9UZ      -0.517000
      2 C04         -1.2230    -0.4200     0.0540 c          1 9UZ       0.577000
      3 N03          0.0130    -0.9970    -0.0110 ns         1 9UZ      -0.484500
      4 C06         -1.2720     1.1100     0.1640 c6         1 9UZ      -0.164400
      5 C07         -0.0050     1.8100    -0.3820 c6         1 9UZ      -0.071400
      6 C08          1.2690     1.1270     0.1680 c6         1 9UZ      -0.164400
      7 C02          1.2410    -0.4030     0.0590 c          1 9UZ       0.577000
      8 O01          2.2620    -1.0650    -0.0280 o          1 9UZ      -0.517000
      9 H1           0.0200    -2.0010    -0.1100 hn         1 9UZ       0.329500
     10 H2          -2.2040     1.4890    -0.2770 hc         1 9UZ       0.079700
     11 H3          -1.3230     1.3260     1.2390 hc         1 9UZ       0.079700
     12 H4          -0.0020     1.7530    -1.4810 hc         1 9UZ       0.059200
     13 H5          -0.0120     2.8780    -0.1230 hc         1 9UZ       0.059200
     14 H6           2.1970     1.5180    -0.2690 hc         1 9UZ       0.079700
     15 H7           1.3130     1.3430     1.2440 hc         1 9UZ       0.079700
@<TRIPOS>BOND
     1     1     2 2   
     2     2     3 1   
     3     2     4 1   
     4     3     7 1   
     5     3     9 1   
     6     4     5 1   
     7     4    10 1   
     8     4    11 1   
     9     5     6 1   
    10     5    12 1   
    11     5    13 1   
    12     6     7 1   
    13     6    14 1   
    14     6    15 1   
    15     7     8 2   
@<TRIPOS>SUBSTRUCTURE
     1 9UZ         1 TEMP              0 ****  ****    0 ROOT
