@<TRIPOS>MOLECULE
9V0
   41    41     1     0     0
SMALL
bcc


@<TRIPOS>ATOM
      1 C15        263.5170    35.7370   140.2510 ca         1 9V0      -0.105300
      2 C20        263.6990    36.2620   137.8930 ca         1 9V0      -0.194000
      3 C21        263.6410    34.9120   137.5860 ca         1 9V0      -0.098000
      4 C22        263.5250    33.9690   138.5960 ca         1 9V0      -0.150000
      5 C          256.2320    37.5740   146.5060 c          1 9V0       0.898600
      6 CA         256.9410    36.2000   146.5530 c3         1 9V0       0.014500
      7 CB         256.6110    35.3970   145.2920 c3         1 9V0      -0.045400
      8 CG         256.9610    36.0620   143.9640 c3         1 9V0      -0.055400
      9 CD         258.4350    36.4210   143.8190 c3         1 9V0      -0.105400
     10 CE         258.7710    36.8650   142.4010 c3         1 9V0       0.116000
     11 C11        261.1370    36.3600   142.0420 c          1 9V0       0.746100
     12 C14        263.4670    36.1640   141.6900 c3         1 9V0       0.220700
     13 C16        263.6430    36.6770   139.2220 ca         1 9V0       0.111600
     14 C23        263.4580    34.3900   139.9160 ca         1 9V0      -0.072000
     15 N          256.5850    35.3860   147.7150 n8         1 9V0      -0.891800
     16 NZ         260.1520    37.2560   142.2170 ns         1 9V0      -0.557900
     17 N17        263.7190    38.0230   139.6190 n2         1 9V0      -0.289600
     18 N18        263.8420    38.8830   138.7610 n1         1 9V0       0.238000
     19 N19        263.9550    39.7540   138.0640 n1         1 9V0      -0.064000
     20 O12        260.9840    35.1600   141.9360 o          1 9V0      -0.603000
     21 O13        262.3310    36.9700   141.9920 os         1 9V0      -0.426900
     22 H20        263.7950    36.9830   137.0900 ha         1 9V0       0.125000
     23 H21        263.6880    34.6010   136.5510 ha         1 9V0       0.127000
     24 H22        263.4810    32.9140   138.3590 ha         1 9V0       0.133000
     25 HA         258.0220    36.3620   146.5910 h1         1 9V0       0.037700
     26 HB2        255.5400    35.1660   145.3010 hc         1 9V0       0.025700
     27 HB3        257.1300    34.4350   145.3560 hc         1 9V0       0.025700
     28 HG2        256.3520    36.9580   143.8130 hc         1 9V0       0.030700
     29 HG3        256.6820    35.3740   143.1580 hc         1 9V0       0.030700
     30 HD2        259.0520    35.5550   144.0810 hc         1 9V0       0.060200
     31 HD3        258.6910    37.2190   144.5190 hc         1 9V0       0.060200
     32 HE2        258.1560    37.7240   142.1260 h1         1 9V0       0.047200
     33 HE3        258.5270    36.0720   141.6920 h1         1 9V0       0.047200
     34 H13        263.5040    35.2870   142.3390 h1         1 9V0       0.063200
     35 H14        264.3210    36.7940   141.9370 h1         1 9V0       0.063200
     36 H23        263.3600    33.6590   140.7090 ha         1 9V0       0.147000
     37 H          256.9040    35.8570   148.5540 hn         1 9V0       0.325800
     38 H2         255.5730    35.3890   147.7880 hn         1 9V0       0.325800
     39 HZ         260.3970    38.2220   142.3560 hn         1 9V0       0.325500
     40 OXT        255.0120    37.5700   146.7790 o          1 9V0      -0.843300
     41 O          256.9170    38.5660   146.1800 o          1 9V0      -0.843300
@<TRIPOS>BOND
     1     1    12 1   
     2     1    13 ar  
     3     1    14 ar  
     4     2     3 ar  
     5     2    13 ar  
     6     2    22 1   
     7     3     4 ar  
     8     3    23 1   
     9     4    14 ar  
    10     4    24 1   
    11     5     6 1   
    12     5    40 1   
    13     5    41 1   
    14     6     7 1   
    15     6    15 1   
    16     6    25 1   
    17     7     8 1   
    18     7    26 1   
    19     7    27 1   
    20     8     9 1   
    21     8    28 1   
    22     8    29 1   
    23     9    10 1   
    24     9    30 1   
    25     9    31 1   
    26    10    16 1   
    27    10    32 1   
    28    10    33 1   
    29    11    16 1   
    30    11    20 2   
    31    11    21 1   
    32    12    21 1   
    33    12    34 1   
    34    12    35 1   
    35    13    17 1   
    36    14    36 1   
    37    15    37 1   
    38    15    38 1   
    39    16    39 1   
    40    17    18 1   
    41    18    19 3   
@<TRIPOS>SUBSTRUCTURE
     1 9V0         1 TEMP              0 ****  ****    0 ROOT
