@<TRIPOS>MOLECULE
9V2
   21    21     1     0     0
SMALL
bcc


@<TRIPOS>ATOM
      1 O1           0.7240    -1.8820     0.7210 o          1 9V2      -0.576500
      2 C4           0.0720    -0.9360     0.3510 c          1 9V2       0.715500
      3 N           -1.1970    -1.0240    -0.1710 ns         1 9V2      -0.617500
      4 C1           0.4840     0.5280     0.3410 c5         1 9V2      -0.129000
      5 C3           1.4050     0.7810    -0.8750 c3         1 9V2      -0.061400
      6 C7           2.7530     0.0760    -0.8730 c3         1 9V2      -0.091100
      7 C5           1.1510     0.9210     1.6510 c3         1 9V2      -0.075100
      8 C2          -0.8520     1.2500     0.1080 c5         1 9V2      -0.173400
      9 C6          -1.8000     0.1910    -0.3910 c          1 9V2       0.712500
     10 O2          -2.8990     0.3390    -0.8680 o          1 9V2      -0.579500
     11 H1          -1.6580    -1.9070    -0.3510 hn         1 9V2       0.342500
     12 H2           0.8640     0.5190    -1.7890 hc         1 9V2       0.045200
     13 H3           1.5650     1.8620    -0.9200 hc         1 9V2       0.045200
     14 H4           3.3530     0.3380    -0.0010 hc         1 9V2       0.041700
     15 H5           2.6560    -1.0080    -0.9020 hc         1 9V2       0.041700
     16 H6           3.3190     0.3760    -1.7550 hc         1 9V2       0.041700
     17 H7           2.0360     0.3210     1.8550 hc         1 9V2       0.047700
     18 H8           1.4580     1.9670     1.6150 hc         1 9V2       0.047700
     19 H9           0.4670     0.8030     2.4930 hc         1 9V2       0.047700
     20 H10         -1.2630     1.6500     1.0400 hc         1 9V2       0.086700
     21 H11         -0.7900     2.0790    -0.5980 hc         1 9V2       0.086700
@<TRIPOS>BOND
     1     1     2 2   
     2     2     3 1   
     3     2     4 1   
     4     3     9 1   
     5     3    11 1   
     6     4     5 1   
     7     4     7 1   
     8     4     8 1   
     9     5     6 1   
    10     5    12 1   
    11     5    13 1   
    12     6    14 1   
    13     6    15 1   
    14     6    16 1   
    15     7    17 1   
    16     7    18 1   
    17     7    19 1   
    18     8     9 1   
    19     8    20 1   
    20     8    21 1   
    21     9    10 2   
@<TRIPOS>SUBSTRUCTURE
     1 9V2         1 TEMP              0 ****  ****    0 ROOT
