@<TRIPOS>MOLECULE
9V2
   21    21     1     0     0
SMALL
No Charge or Current Charge


@<TRIPOS>ATOM
      1 O1           0.6820    -1.9710     0.6610 o          1 9V2      -0.501000
      2 C4           0.0610    -0.9750     0.3260 c          1 9V2       0.573000
      3 N           -1.2380    -0.9690    -0.0490 ns         1 9V2      -0.483500
      4 C1           0.4850     0.5250     0.3060 c5         1 9V2      -0.129000
      5 C3           1.4470     0.8140    -0.8910 c3         1 9V2      -0.061400
      6 C7           2.8090     0.0810    -0.8900 c3         1 9V2      -0.091100
      7 C5           1.1510     0.9180     1.6560 c3         1 9V2      -0.075100
      8 C2          -0.8960     1.2650     0.1030 c5         1 9V2      -0.173400
      9 C6          -1.8750     0.1810    -0.3530 c          1 9V2       0.570000
     10 O2          -2.9040     0.2620    -1.0000 o          1 9V2      -0.504000
     11 H1          -1.7070    -1.8480    -0.2080 hn         1 9V2       0.342500
     12 H2           0.9370     0.5650    -1.8300 hc         1 9V2       0.045200
     13 H3           1.6470     1.8920    -0.9400 hc         1 9V2       0.045200
     14 H4           3.4160     0.3660    -0.0230 hc         1 9V2       0.041700
     15 H5           2.6770    -1.0060    -0.8840 hc         1 9V2       0.041700
     16 H6           3.3760     0.3430    -1.7910 hc         1 9V2       0.041700
     17 H7           2.0460     0.3190     1.8610 hc         1 9V2       0.047700
     18 H8           1.4450     1.9740     1.6610 hc         1 9V2       0.047700
     19 H9           0.4640     0.7620     2.4970 hc         1 9V2       0.047700
     20 H10         -1.2780     1.6330     1.0620 hc         1 9V2       0.086700
     21 H11         -0.8980     2.1120    -0.5920 hc         1 9V2       0.086700
@<TRIPOS>BOND
     1     1     2 2   
     2     2     3 1   
     3     2     4 1   
     4     3     9 1   
     5     3    11 1   
     6     4     5 1   
     7     4     7 1   
     8     4     8 1   
     9     5     6 1   
    10     5    12 1   
    11     5    13 1   
    12     6    14 1   
    13     6    15 1   
    14     6    16 1   
    15     7    17 1   
    16     7    18 1   
    17     7    19 1   
    18     8     9 1   
    19     8    20 1   
    20     8    21 1   
    21     9    10 2   
@<TRIPOS>SUBSTRUCTURE
     1 9V2         1 TEMP              0 ****  ****    0 ROOT
