@<TRIPOS>MOLECULE
9V3
   49    51     1     0     0
SMALL
bcc


@<TRIPOS>ATOM
      1 N1         168.6710   169.5500   187.5060 n          1 9V3      -0.463800
      2 C7         166.8100   171.1430   187.3430 c6         1 9V3      -0.021100
      3 C8         167.5750   171.9470   188.3360 cc         1 9V3      -0.036400
      4 N2         170.8970   171.2020   186.5920 nb         1 9V3      -0.663000
      5 C9         168.8060   171.6080   188.8010 cd         1 9V3      -0.125300
      6 C1         168.7460   163.9040   188.9570 c3         1 9V3      -0.061700
      7 C5         168.7620   168.1970   187.4370 c          1 9V3       0.633100
      8 C6         167.8000   170.2710   186.5860 c6         1 9V3       0.096000
      9 C4         169.7490   167.5000   188.3790 c3         1 9V3       0.091800
     10 C3         168.6080   165.4240   188.9580 c3         1 9V3       0.163800
     11 C2         169.9870   163.4440   189.7130 c3         1 9V3      -0.085100
     12 N          169.7420   166.0650   188.3160 n7         1 9V3      -0.805200
     13 C          167.4890   163.2690   189.5420 c3         1 9V3      -0.085100
     14 O          168.1090   167.5420   186.6390 o          1 9V3      -0.612100
     15 C10        169.3290   172.5560   189.7290 cd         1 9V3      -0.135000
     16 C11        168.4760   173.5910   189.9480 cc         1 9V3      -0.114100
     17 C12        169.5110   170.3420   188.3960 c6         1 9V3       0.143700
     18 C13        170.8750   170.6570   187.8050 ca         1 9V3       0.396600
     19 C14        172.0620   171.5210   186.0420 ca         1 9V3       0.428600
     20 C15        172.0440   172.1310   184.6720 c3         1 9V3      -0.146400
     21 C16        173.2700   171.3080   186.7080 ca         1 9V3      -0.244300
     22 C17        173.2490   170.7440   187.9690 ca         1 9V3      -0.086000
     23 C18        172.0250   170.4050   188.5330 ca         1 9V3      -0.247300
     24 S          167.0350   173.4260   189.0280 ss         1 9V3      -0.084800
     25 H16        166.2790   171.7830   186.6350 hc         1 9V3       0.061200
     26 H15        166.0570   170.5240   187.8380 hc         1 9V3       0.061200
     27 H4         168.8350   163.5760   187.9130 hc         1 9V3       0.046700
     28 H14        167.2740   169.5470   185.9710 h1         1 9V3       0.073700
     29 H13        168.4080   170.8920   185.9270 h1         1 9V3       0.073700
     30 H11        170.7550   167.8660   188.1430 h1         1 9V3       0.067200
     31 H12        169.5610   167.7980   189.4140 h1         1 9V3       0.067200
     32 H8         168.5660   165.7720   189.9960 h1         1 9V3       0.035700
     33 H9         167.6450   165.6920   188.5020 h1         1 9V3       0.035700
     34 H7         170.0860   162.3570   189.6820 hc         1 9V3       0.033200
     35 H5         170.8970   163.8750   189.2960 hc         1 9V3       0.033200
     36 H6         169.9280   163.7400   190.7630 hc         1 9V3       0.033200
     37 H10        169.8030   165.7610   187.3520 hn         1 9V3       0.374800
     38 H2         167.5550   162.1800   189.5300 hc         1 9V3       0.033200
     39 H3         167.3440   163.5790   190.5800 hc         1 9V3       0.033200
     40 H1         166.5970   163.5540   188.9820 hc         1 9V3       0.033200
     41 H17        170.2930   172.4680   190.2100 ha         1 9V3       0.152000
     42 H18        168.6170   174.4400   190.5990 h4         1 9V3       0.169000
     43 H          169.6770   169.7760   189.3150 h1         1 9V3       0.065700
     44 H21        171.0240   172.2460   184.3120 hc         1 9V3       0.053033
     45 H20        172.5220   173.1110   184.6750 hc         1 9V3       0.053033
     46 H19        172.5940   171.5110   183.9620 hc         1 9V3       0.053033
     47 H22        174.2050   171.5830   186.2380 ha         1 9V3       0.142000
     48 H23        174.1700   170.5650   188.5080 ha         1 9V3       0.139000
     49 H24        171.9680   169.9570   189.5170 ha         1 9V3       0.141000
@<TRIPOS>BOND
     1     1     7 1   
     2     1     8 1   
     3     1    17 1   
     4     2     3 1   
     5     2     8 1   
     6     2    25 1   
     7     2    26 1   
     8     3     5 2   
     9     3    24 1   
    10     4    18 ar  
    11     4    19 ar  
    12     5    15 1   
    13     5    17 1   
    14     6    10 1   
    15     6    11 1   
    16     6    13 1   
    17     6    27 1   
    18     7     9 1   
    19     7    14 2   
    20     8    28 1   
    21     8    29 1   
    22     9    12 1   
    23     9    30 1   
    24     9    31 1   
    25    10    12 1   
    26    10    32 1   
    27    10    33 1   
    28    11    34 1   
    29    11    35 1   
    30    11    36 1   
    31    12    37 1   
    32    13    38 1   
    33    13    39 1   
    34    13    40 1   
    35    15    16 2   
    36    15    41 1   
    37    16    24 1   
    38    16    42 1   
    39    17    18 1   
    40    17    43 1   
    41    18    23 ar  
    42    19    20 1   
    43    19    21 ar  
    44    20    44 1   
    45    20    45 1   
    46    20    46 1   
    47    21    22 ar  
    48    21    47 1   
    49    22    23 ar  
    50    22    48 1   
    51    23    49 1   
@<TRIPOS>SUBSTRUCTURE
     1 9V3         1 TEMP              0 ****  ****    0 ROOT
