@<TRIPOS>MOLECULE
9V3
   49    51     1     0     0
SMALL
No Charge or Current Charge


@<TRIPOS>ATOM
      1 N1         168.5080   169.6110   187.7140 n          1 9V3      -0.396800
      2 C7         166.6050   171.2920   187.6240 c6         1 9V3      -0.021100
      3 C8         167.4570   172.1940   188.4650 cc         1 9V3      -0.181300
      4 N2         170.8660   170.9940   186.5960 nb         1 9V3      -0.663000
      5 C9         168.7140   171.8470   188.8810 cd         1 9V3      -0.125300
      6 C1         168.8450   163.8810   188.7980 c3         1 9V3      -0.061700
      7 C5         168.9180   168.2900   187.4060 c          1 9V3       0.566100
      8 C6         167.5000   170.3010   186.8490 c6         1 9V3       0.096000
      9 C4         169.9460   167.5770   188.3570 c3         1 9V3       0.091800
     10 C3         168.7540   165.4250   188.9020 c3         1 9V3       0.163800
     11 C2         170.0330   163.2960   189.6020 c3         1 9V3      -0.085100
     12 N          169.9400   166.0760   188.3070 n7         1 9V3      -0.860400
     13 C          167.5150   163.2200   189.2250 c3         1 9V3      -0.085100
     14 O          168.4390   167.6960   186.4430 o          1 9V3      -0.612100
     15 C10        169.3220   172.8540   189.6840 cd         1 9V3      -0.117000
     16 C11        168.5340   173.9630   189.8710 cc         1 9V3      -0.241000
     17 C12        169.3860   170.5220   188.5390 c6         1 9V3       0.143700
     18 C13        170.7930   170.7360   187.9280 ca         1 9V3       0.331300
     19 C14        172.0840   171.1740   186.0420 ca         1 9V3       0.363300
     20 C15        172.1020   171.4640   184.5540 c3         1 9V3      -0.146400
     21 C16        173.2750   171.1040   186.7860 ca         1 9V3      -0.161000
     22 C17        173.2090   170.8350   188.1620 ca         1 9V3      -0.068000
     23 C18        171.9430   170.6470   188.7380 ca         1 9V3      -0.164000
     24 S          166.9890   173.7880   189.0460 ss         1 9V3       0.205000
     25 H16        165.9910   171.8680   186.9180 hc         1 9V3       0.061200
     26 H15        165.9070   170.7310   188.2600 hc         1 9V3       0.061200
     27 H4         169.0030   163.6260   187.7420 hc         1 9V3       0.046700
     28 H14        166.8510   169.5670   186.3510 h1         1 9V3       0.073700
     29 H13        168.0350   170.8460   186.0580 h1         1 9V3       0.073700
     30 H11        170.9380   167.9580   188.0810 h1         1 9V3       0.067200
     31 H12        169.7470   167.9110   189.3840 h1         1 9V3       0.067200
     32 H8         168.6520   165.7070   189.9600 h1         1 9V3       0.035700
     33 H9         167.8440   165.7590   188.3850 h1         1 9V3       0.035700
     34 H7         170.0680   162.2050   189.5020 hc         1 9V3       0.033200
     35 H5         170.9890   163.6940   189.2410 hc         1 9V3       0.033200
     36 H6         169.9400   163.5400   190.6670 hc         1 9V3       0.033200
     37 H10        169.9870   165.7980   187.3170 hn         1 9V3       0.430000
     38 H2         167.5640   162.1310   189.1000 hc         1 9V3       0.033200
     39 H3         167.2920   163.4350   190.2780 hc         1 9V3       0.033200
     40 H1         166.6830   163.5930   188.6150 hc         1 9V3       0.033200
     41 H17        170.3150   172.7600   190.1130 ha         1 9V3       0.134000
     42 H18        168.7430   174.8660   190.4300 h4         1 9V3       0.151000
     43 H          169.5390   170.0220   189.5050 h1         1 9V3       0.065700
     44 H21        171.3590   170.8600   184.0210 hc         1 9V3       0.053033
     45 H20        171.8790   172.5200   184.3630 hc         1 9V3       0.053033
     46 H19        173.0820   171.2430   184.1160 hc         1 9V3       0.053033
     47 H22        174.2350   171.2580   186.3010 ha         1 9V3       0.124000
     48 H23        174.1130   170.7740   188.7640 ha         1 9V3       0.121000
     49 H24        171.8520   170.4370   189.8000 ha         1 9V3       0.123000
@<TRIPOS>BOND
     1     1     7 1   
     2     1     8 1   
     3     1    17 1   
     4     2     3 1   
     5     2     8 1   
     6     2    25 1   
     7     2    26 1   
     8     3     5 2   
     9     3    24 1   
    10     4    18 ar  
    11     4    19 ar  
    12     5    15 1   
    13     5    17 1   
    14     6    10 1   
    15     6    11 1   
    16     6    13 1   
    17     6    27 1   
    18     7     9 1   
    19     7    14 2   
    20     8    28 1   
    21     8    29 1   
    22     9    12 1   
    23     9    30 1   
    24     9    31 1   
    25    10    12 1   
    26    10    32 1   
    27    10    33 1   
    28    11    34 1   
    29    11    35 1   
    30    11    36 1   
    31    12    37 1   
    32    13    38 1   
    33    13    39 1   
    34    13    40 1   
    35    15    16 2   
    36    15    41 1   
    37    16    24 1   
    38    16    42 1   
    39    17    18 1   
    40    17    43 1   
    41    18    23 ar  
    42    19    20 1   
    43    19    21 ar  
    44    20    44 1   
    45    20    45 1   
    46    20    46 1   
    47    21    22 ar  
    48    21    47 1   
    49    22    23 ar  
    50    22    48 1   
    51    23    49 1   
@<TRIPOS>SUBSTRUCTURE
     1 9V3         1 TEMP              0 ****  ****    0 ROOT
