@<TRIPOS>MOLECULE
9V5
   27    28     1     0     0
SMALL
No Charge or Current Charge


@<TRIPOS>ATOM
      1 C1          -3.8480     1.2050    -1.8030 ca         1 9V5      -0.047000
      2 C2          -2.9310     0.3110    -2.3820 ca         1 9V5      -0.124500
      3 C3          -3.9320     1.3150    -0.4050 ca         1 9V5      -0.124500
      4 C4          -2.0970    -0.4730    -1.5660 ca         1 9V5      -0.007500
      5 C5          -3.1010     0.5350     0.4180 ca         1 9V5      -0.007500
      6 C6           1.5400    -1.8230     0.0450 ca         1 9V5      -0.021000
      7 C7           2.8320    -1.4650    -0.3720 ca         1 9V5      -0.090000
      8 C8           2.2700     0.8850    -0.1280 ca         1 9V5      -0.074000
      9 C10         -2.1770    -0.3610    -0.1630 ca         1 9V5      -0.279500
     10 S18         -1.0820    -1.3620     0.8670 sy         1 9V5       1.018000
     11 O16         -1.3030    -0.9800     2.2680 o          1 9V5      -0.505000
     12 O17         -1.2370    -2.7610     0.4470 o          1 9V5      -0.505000
     13 C11          0.5920    -0.8290     0.3870 ca         1 9V5      -0.193500
     14 C12          3.1940    -0.1150    -0.4610 ca         1 9V5       0.148000
     15 Cl           4.8130     0.3270    -0.9910 cl         1 9V5      -0.156000
     16 C9           0.9680     0.5460     0.3050 ca         1 9V5      -0.073200
     17 N13          0.0360     1.6640     0.6430 no         1 9V5       0.684200
     18 O15         -0.1230     2.5440    -0.2110 o          1 9V5      -0.374500
     19 O14         -0.3020     1.7880     1.8250 o          1 9V5      -0.374500
     20 H1          -4.4920     1.8110    -2.4370 ha         1 9V5       0.120000
     21 H2          -2.8670     0.2250    -3.4640 ha         1 9V5       0.123500
     22 H3          -4.6410     2.0070     0.0430 ha         1 9V5       0.123500
     23 H4          -1.3890    -1.1610    -2.0270 ha         1 9V5       0.136500
     24 H5          -3.1780     0.6360     1.5000 ha         1 9V5       0.136500
     25 H7           3.5530    -2.2370    -0.6320 ha         1 9V5       0.145000
     26 H8           2.5700     1.9280    -0.2010 ha         1 9V5       0.162000
     27 H6           1.2820    -2.8800     0.0980 ha         1 9V5       0.161000
@<TRIPOS>BOND
     1     1     2 ar  
     2     1     3 ar  
     3     1    20 1   
     4     2     4 ar  
     5     2    21 1   
     6     3     5 ar  
     7     3    22 1   
     8     4     9 ar  
     9     4    23 1   
    10     5     9 ar  
    11     5    24 1   
    12     6     7 ar  
    13     6    13 ar  
    14     6    27 1   
    15     7    14 ar  
    16     7    25 1   
    17     8    14 ar  
    18     8    16 ar  
    19     8    26 1   
    20     9    10 1   
    21    10    11 2   
    22    10    12 2   
    23    10    13 1   
    24    13    16 ar  
    25    14    15 1   
    26    16    17 1   
    27    17    18 1   
    28    17    19 1   
@<TRIPOS>SUBSTRUCTURE
     1 9V5         1 TEMP              0 ****  ****    0 ROOT
