@<TRIPOS>MOLECULE
9V5
   27    28     1     0     0
SMALL
abcg2


@<TRIPOS>ATOM
      1 C1          -3.8890     1.1610    -1.7130 ca         1 9V5      -0.047000
      2 C2          -2.8670     0.4310    -2.3080 ca         1 9V5      -0.124500
      3 C3          -4.0380     1.1650    -0.3330 ca         1 9V5      -0.124500
      4 C4          -1.9930    -0.3040    -1.5240 ca         1 9V5      -0.007500
      5 C5          -3.1610     0.4470     0.4670 ca         1 9V5      -0.007500
      6 C6           1.4870    -1.7710     0.1100 ca         1 9V5      -0.021000
      7 C7           2.7890    -1.4980    -0.2750 ca         1 9V5      -0.090000
      8 C8           2.3000     0.8600    -0.2310 ca         1 9V5      -0.074000
      9 C10         -2.1470    -0.2750    -0.1440 ca         1 9V5      -0.279500
     10 S18         -1.0720    -1.2740     0.8410 sy         1 9V5       1.018000
     11 O16         -1.2930    -1.0210     2.2540 o          1 9V5      -0.505000
     12 O17         -1.1810    -2.6470     0.3600 o          1 9V5      -0.505000
     13 C11          0.5860    -0.7480     0.3640 ca         1 9V5      -0.193500
     14 C12          3.1870    -0.1840    -0.4460 ca         1 9V5       0.148000
     15 CL           4.7930     0.1700    -0.9400 cl         1 9V5      -0.156000
     16 C9           1.0200     0.5650     0.1930 ca         1 9V5      -0.073200
     17 N13          0.1480     1.7020     0.4580 no         1 9V5       0.684200
     18 O15          0.1900     2.6270    -0.3120 o          1 9V5      -0.374500
     19 O14         -0.5440     1.6400     1.4420 o          1 9V5      -0.374500
     20 H1          -4.5720     1.7290    -2.3300 ha         1 9V5       0.120000
     21 H2          -2.7530     0.4280    -3.3840 ha         1 9V5       0.123500
     22 H3          -4.8370     1.7310     0.1270 ha         1 9V5       0.123500
     23 H4          -1.2030    -0.8790    -1.9920 ha         1 9V5       0.136500
     24 H5          -3.2710     0.4570     1.5420 ha         1 9V5       0.136500
     25 H7           3.4780    -2.3120    -0.4520 ha         1 9V5       0.145000
     26 H8           2.6130     1.8850    -0.3710 ha         1 9V5       0.162000
     27 H6           1.1810    -2.8030     0.2030 ha         1 9V5       0.161000
@<TRIPOS>BOND
     1     1     2 ar  
     2     1     3 ar  
     3     1    20 1   
     4     2     4 ar  
     5     2    21 1   
     6     3     5 ar  
     7     3    22 1   
     8     4     9 ar  
     9     4    23 1   
    10     5     9 ar  
    11     5    24 1   
    12     6     7 ar  
    13     6    13 ar  
    14     6    27 1   
    15     7    14 ar  
    16     7    25 1   
    17     8    14 ar  
    18     8    16 ar  
    19     8    26 1   
    20     9    10 1   
    21    10    11 2   
    22    10    12 2   
    23    10    13 1   
    24    13    16 ar  
    25    14    15 1   
    26    16    17 1   
    27    17    18 1   
    28    17    19 1   
@<TRIPOS>SUBSTRUCTURE
     1 9V5         1 TEMP              0 ****  ****    0 ROOT
