@<TRIPOS>MOLECULE
9V6
   39    39     1     0     0
SMALL
bcc


@<TRIPOS>ATOM
      1 C15        327.0070    30.7770   200.8840 ca         1 9V6      -0.113300
      2 C20        327.3530    29.1500   199.1210 ca         1 9V6      -0.136000
      3 C21        327.2780    29.4770   200.4660 ca         1 9V6      -0.084000
      4 C          319.5480    33.2800   208.2550 c          1 9V6       0.903600
      5 CA         320.6830    32.4080   207.6490 c3         1 9V6       0.012500
      6 CB         320.3980    32.1240   206.1740 c3         1 9V6      -0.054400
      7 CG         321.5330    31.4270   205.4350 c3         1 9V6      -0.073400
      8 CD         321.2060    31.2080   203.9630 c3         1 9V6      -0.095400
      9 CE         322.2740    30.4460   203.1960 c3         1 9V6       0.116000
     10 C11        324.6850    30.6300   202.8310 c          1 9V6       0.749100
     11 C14        326.9470    31.1060   202.3490 c3         1 9V6       0.210700
     12 C16        326.8110    31.7430   199.9000 ca         1 9V6       0.048400
     13 C18        326.8740    31.4340   198.5500 ca         1 9V6      -0.134000
     14 C19        327.1450    30.1310   198.1620 ca         1 9V6      -0.115000
     15 N          320.9590    31.1630   208.3520 n8         1 9V6      -0.888800
     16 NZ         323.5080    31.2010   203.1290 ns         1 9V6      -0.553900
     17 O12        324.8660    29.4410   202.6690 o          1 9V6      -0.607000
     18 O13        325.6580    31.5530   202.7550 os         1 9V6      -0.425900
     19 CL         326.4930    33.3880   200.3500 cl         1 9V6      -0.106400
     20 H20        327.5660    28.1320   198.8230 ha         1 9V6       0.133000
     21 H21        327.4320    28.7110   201.2150 ha         1 9V6       0.145000
     22 HA         321.5980    33.0140   207.6910 h1         1 9V6       0.038700
     23 HB2        320.1710    33.0680   205.6770 hc         1 9V6       0.037200
     24 HB3        319.4890    31.5130   206.0980 hc         1 9V6       0.037200
     25 HG2        321.7480    30.4630   205.9030 hc         1 9V6       0.041700
     26 HG3        322.4450    32.0250   205.5320 hc         1 9V6       0.041700
     27 HD2        321.0160    32.1690   203.4730 hc         1 9V6       0.040700
     28 HD3        320.2760    30.6400   203.8770 hc         1 9V6       0.040700
     29 HE2        321.9110    30.2150   202.1890 h1         1 9V6       0.042700
     30 HE3        322.4690    29.4940   203.6910 h1         1 9V6       0.042700
     31 H12        327.2650    30.2440   202.9370 h1         1 9V6       0.067200
     32 H13        327.6160    31.9330   202.5860 h1         1 9V6       0.067200
     33 H18        326.7170    32.2060   197.8080 ha         1 9V6       0.143000
     34 H19        327.1960    29.8880   197.1090 ha         1 9V6       0.130000
     35 H          321.0880    31.3700   209.3350 hn         1 9V6       0.325300
     36 H2         320.1200    30.5930   208.3270 hn         1 9V6       0.325300
     37 HZ         323.4500    32.2080   203.1370 hn         1 9V6       0.330500
     38 O          319.3540    34.3820   207.6990 o          1 9V6      -0.840800
     39 OXT        318.9300    32.8240   209.2370 o          1 9V6      -0.840800
@<TRIPOS>BOND
     1     1     3 ar  
     2     1    11 1   
     3     1    12 ar  
     4     2     3 ar  
     5     2    14 ar  
     6     2    20 1   
     7     3    21 1   
     8     4     5 1   
     9     4    38 1   
    10     4    39 1   
    11     5     6 1   
    12     5    15 1   
    13     5    22 1   
    14     6     7 1   
    15     6    23 1   
    16     6    24 1   
    17     7     8 1   
    18     7    25 1   
    19     7    26 1   
    20     8     9 1   
    21     8    27 1   
    22     8    28 1   
    23     9    16 1   
    24     9    29 1   
    25     9    30 1   
    26    10    16 1   
    27    10    17 2   
    28    10    18 1   
    29    11    18 1   
    30    11    31 1   
    31    11    32 1   
    32    12    13 ar  
    33    12    19 1   
    34    13    14 ar  
    35    13    33 1   
    36    14    34 1   
    37    15    35 1   
    38    15    36 1   
    39    16    37 1   
@<TRIPOS>SUBSTRUCTURE
     1 9V6         1 TEMP              0 ****  ****    0 ROOT
