@<TRIPOS>MOLECULE
9V7
   16    16     1     0     0
SMALL
No Charge or Current Charge


@<TRIPOS>ATOM
      1 N            1.0720    -0.7050     0.1300 ns         1 9V7      -0.190000
      2 C            2.2760    -0.0190     0.0660 c          1 9V7       0.746000
      3 O            2.2990     1.1840    -0.1430 o          1 9V7      -0.714500
      4 C1          -0.2840    -0.2830     0.0720 ca         1 9V7       0.060000
      5 C2          -1.2630    -1.2770    -0.1220 ca         1 9V7      -0.206500
      6 C3          -2.6260    -0.9430    -0.1800 ca         1 9V7      -0.082000
      7 C4          -3.0250     0.3950    -0.0360 ca         1 9V7      -0.215000
      8 C5          -2.0620     1.3940     0.1700 ca         1 9V7      -0.082000
      9 C6          -0.6980     1.0580     0.2270 ca         1 9V7      -0.206500
     10 O1           3.2910    -0.6860     0.1940 o          1 9V7      -0.714500
     11 H1           1.1770    -1.7030     0.2520 hn         1 9V7       0.113000
     12 H2          -0.9640    -2.3170    -0.2330 ha         1 9V7       0.122500
     13 H3          -3.3720    -1.7200    -0.3350 ha         1 9V7       0.081500
     14 H4          -4.0800     0.6560    -0.0790 ha         1 9V7       0.084000
     15 H5          -2.3720     2.4300     0.2910 ha         1 9V7       0.081500
     16 H6           0.0200     1.8510     0.4060 ha         1 9V7       0.122500
@<TRIPOS>BOND
     1     1     2 1   
     2     1     4 1   
     3     1    11 1   
     4     2     3 1   
     5     2    10 1   
     6     4     5 ar  
     7     4     9 ar  
     8     5     6 ar  
     9     5    12 1   
    10     6     7 ar  
    11     6    13 1   
    12     7     8 ar  
    13     7    14 1   
    14     8     9 ar  
    15     8    15 1   
    16     9    16 1   
@<TRIPOS>SUBSTRUCTURE
     1 9V7         1 TEMP              0 ****  ****    0 ROOT
