@<TRIPOS>MOLECULE
9V7
   16    16     1     0     0
SMALL
abcg2


@<TRIPOS>ATOM
      1 N            1.0390    -0.7140     0.0670 ns         1 9V7      -0.190000
      2 C            2.2580     0.0100     0.1480 c          1 9V7       0.746000
      3 O            2.2010     1.2500     0.2180 o          1 9V7      -0.714500
      4 C1          -0.2700    -0.2870     0.0440 ca         1 9V7       0.060000
      5 C2          -1.2680    -1.2670    -0.0910 ca         1 9V7      -0.206500
      6 C3          -2.6110    -0.9330    -0.1190 ca         1 9V7      -0.082000
      7 C4          -3.0140     0.3930    -0.0140 ca         1 9V7      -0.215000
      8 C5          -2.0350     1.3690     0.1200 ca         1 9V7      -0.082000
      9 C6          -0.6840     1.0500     0.1510 ca         1 9V7      -0.206500
     10 O1           3.2730    -0.7100     0.1380 o          1 9V7      -0.714500
     11 H1           1.1610    -1.7120    -0.0000 hn         1 9V7       0.113000
     12 H2          -0.9800    -2.3090    -0.1770 ha         1 9V7       0.122500
     13 H3          -3.3470    -1.7200    -0.2260 ha         1 9V7       0.081500
     14 H4          -4.0630     0.6560    -0.0360 ha         1 9V7       0.084000
     15 H5          -2.3220     2.4100     0.2050 ha         1 9V7       0.081500
     16 H6           0.0510     1.8300     0.2540 ha         1 9V7       0.122500
@<TRIPOS>BOND
     1     1     2 1   
     2     1     4 1   
     3     1    11 1   
     4     2     3 1   
     5     2    10 1   
     6     4     5 ar  
     7     4     9 ar  
     8     5     6 ar  
     9     5    12 1   
    10     6     7 ar  
    11     6    13 1   
    12     7     8 ar  
    13     7    14 1   
    14     8     9 ar  
    15     8    15 1   
    16     9    16 1   
@<TRIPOS>SUBSTRUCTURE
     1 9V7         1 TEMP              0 ****  ****    0 ROOT
