@<TRIPOS>MOLECULE
9V8
   56    60     1     0     0
SMALL
No Charge or Current Charge


@<TRIPOS>ATOM
      1 N3           0.2780     3.3780    -0.6950 n          1 9V8      -0.414800
      2 C4          -0.5410     4.5650    -1.0340 c5         1 9V8       0.140000
      3 C5          -1.8650     4.3110    -0.3020 cx         1 9V8      -0.138700
      4 C6          -2.6100     3.0730    -0.7620 cx         1 9V8      -0.123700
      5 C7          -4.1250     2.9950    -0.6580 c3         1 9V8       0.128000
      6 C15          3.8460     0.3650    -0.6390 ca         1 9V8      -0.103300
      7 C17          4.5910    -2.0730     0.5510 ca         1 9V8      -0.007000
      8 C20          3.3520    -0.8490    -1.1480 ca         1 9V8      -0.017500
      9 C21         -5.8620     1.1980    -0.4410 c          1 9V8       0.618700
     10 C22         -6.1050    -0.2820    -0.2550 ca         1 9V8      -0.185600
     11 C24         -5.0360    -1.2210    -0.1380 ca         1 9V8      -0.059000
     12 C26         -7.4440    -0.7510    -0.1940 ca         1 9V8       0.037000
     13 C28         -6.6410    -2.9960     0.0860 ca         1 9V8      -0.063200
     14 C1          -1.7490     3.0350     0.4860 cx         1 9V8      -0.138700
     15 C11          1.5490     3.1740    -1.2450 c          1 9V8       0.646100
     16 C14          3.4280     1.6830    -1.2770 c3         1 9V8       0.228900
     17 C16          3.7250    -2.0770    -0.5630 ca         1 9V8      -0.207300
     18 C18          5.0990    -0.8620     1.0680 ca         1 9V8      -0.207300
     19 C19          4.7140     0.3560     0.4690 ca         1 9V8      -0.017500
     20 C2          -0.3490     2.4440     0.2730 c5         1 9V8       0.140000
     21 C25         -5.3020    -2.5970     0.0350 ca         1 9V8      -0.120000
     22 C27         -7.6700    -2.1240    -0.0220 ca         1 9V8      -0.001600
     23 C32          3.1710    -3.3980    -1.1070 c3         1 9V8       0.360800
     24 C36          6.0300    -0.8710     2.2850 c3         1 9V8       0.360800
     25 F33          4.0440    -4.4210    -0.9590 f          1 9V8      -0.109333
     26 F34          2.0340    -3.7530    -0.4680 f          1 9V8      -0.109333
     27 F35          2.8780    -3.3310    -2.4260 f          1 9V8      -0.109333
     28 F37          5.3270    -0.8490     3.4390 f          1 9V8      -0.109333
     29 F38          6.8150    -1.9720     2.3210 f          1 9V8      -0.109333
     30 F39          6.8620     0.1950     2.3070 f          1 9V8      -0.109333
     31 N10         -4.5500     1.6080    -0.4940 ns         1 9V8      -0.504900
     32 N29         -7.1950    -4.2330     0.2420 na         1 9V8      -0.069400
     33 N30         -8.5790    -4.0960     0.2270 nc         1 9V8      -0.155400
     34 N31         -8.8740    -2.8050     0.0650 nd         1 9V8      -0.209400
     35 O12          2.0720     3.9420    -2.0390 o          1 9V8      -0.537000
     36 O13          2.1210     2.0200    -0.7880 os         1 9V8      -0.462100
     37 O23         -6.7800     2.0000    -0.5390 o          1 9V8      -0.597100
     38 H1          -0.0480     5.4820    -0.6830 h1         1 9V8       0.062450
     39 H2          -0.6760     4.6580    -2.1200 h1         1 9V8       0.062450
     40 H3          -2.4390     5.1410     0.1050 hc         1 9V8       0.102200
     41 H4          -2.2360     2.5640    -1.6490 hc         1 9V8       0.099700
     42 H5          -4.4780     3.5810     0.2020 h1         1 9V8       0.060700
     43 H6          -4.5790     3.4080    -1.5690 h1         1 9V8       0.060700
     44 H7           4.8650    -3.0160     1.0230 ha         1 9V8       0.151000
     45 H8           2.6690    -0.8300    -1.9960 ha         1 9V8       0.138500
     46 H9          -3.9970    -0.9040    -0.1790 ha         1 9V8       0.116000
     47 H10         -8.2880    -0.0710    -0.2790 ha         1 9V8       0.158000
     48 H11         -2.2400     2.9550     1.4530 hc         1 9V8       0.102200
     49 H12          4.1550     2.4670    -1.0230 h1         1 9V8       0.065700
     50 H13          3.4200     1.5720    -2.3690 h1         1 9V8       0.065700
     51 H14          5.0800     1.3010     0.8660 ha         1 9V8       0.138500
     52 H15         -0.3860     1.4210    -0.1270 h1         1 9V8       0.062450
     53 H16          0.2300     2.4150     1.2060 h1         1 9V8       0.062450
     54 H17         -4.4920    -3.3180     0.1240 ha         1 9V8       0.129000
     55 H18         -3.8400     0.8960    -0.4000 hn         1 9V8       0.313500
     56 H19         -6.7310    -5.1300     0.3540 hn         1 9V8       0.385000
@<TRIPOS>BOND
     1     1     2 1   
     2     1    15 1   
     3     1    20 1   
     4     2     3 1   
     5     2    38 1   
     6     2    39 1   
     7     3     4 1   
     8     3    14 1   
     9     3    40 1   
    10     4     5 1   
    11     4    14 1   
    12     4    41 1   
    13     5    31 1   
    14     5    42 1   
    15     5    43 1   
    16     6     8 ar  
    17     6    16 1   
    18     6    19 ar  
    19     7    17 ar  
    20     7    18 ar  
    21     7    44 1   
    22     8    17 ar  
    23     8    45 1   
    24     9    10 1   
    25     9    31 1   
    26     9    37 2   
    27    10    11 ar  
    28    10    12 ar  
    29    11    21 ar  
    30    11    46 1   
    31    12    22 ar  
    32    12    47 1   
    33    13    21 ar  
    34    13    22 ar  
    35    13    32 1   
    36    14    20 1   
    37    14    48 1   
    38    15    35 2   
    39    15    36 1   
    40    16    36 1   
    41    16    49 1   
    42    16    50 1   
    43    17    23 1   
    44    18    19 ar  
    45    18    24 1   
    46    19    51 1   
    47    20    52 1   
    48    20    53 1   
    49    21    54 1   
    50    22    34 1   
    51    23    25 1   
    52    23    26 1   
    53    23    27 1   
    54    24    28 1   
    55    24    29 1   
    56    24    30 1   
    57    31    55 1   
    58    32    33 1   
    59    32    56 1   
    60    33    34 2   
@<TRIPOS>SUBSTRUCTURE
     1 9V8         1 TEMP              0 ****  ****    0 ROOT
