@<TRIPOS>MOLECULE
9V8
   56    60     1     0     0
SMALL
abcg2


@<TRIPOS>ATOM
      1 N3           0.2460     3.2110    -0.8140 n          1 9V8      -0.414800
      2 C4          -0.4660     4.4620    -1.0400 c5         1 9V8       0.140000
      3 C5          -1.7740     4.2620    -0.3180 cx         1 9V8      -0.138700
      4 C6          -2.5690     3.0510    -0.6930 cx         1 9V8      -0.123700
      5 C7          -4.0560     3.0530    -0.4750 c3         1 9V8       0.128000
      6 C15          3.6310     0.1680    -0.9470 ca         1 9V8      -0.103300
      7 C17          4.5720    -2.1170     0.3600 ca         1 9V8      -0.007000
      8 C20          4.0980    -0.9150    -1.6730 ca         1 9V8      -0.017500
      9 C21         -5.7170     1.2330    -0.5140 c          1 9V8       0.618700
     10 C22         -5.9890    -0.1900    -0.1350 ca         1 9V8      -0.185600
     11 C24         -4.9460    -1.1370     0.0170 ca         1 9V8      -0.059000
     12 C26         -7.3080    -0.5620     0.0330 ca         1 9V8       0.037000
     13 C28         -6.5210    -2.8040     0.5390 ca         1 9V8      -0.063200
     14 C1          -1.6640     3.0140     0.5040 cx         1 9V8      -0.138700
     15 C11          1.3840     2.9430    -1.4690 c          1 9V8       0.646100
     16 C14          3.1620     1.4060    -1.6550 c3         1 9V8       0.228900
     17 C16          4.5720    -2.0480    -1.0230 ca         1 9V8      -0.207300
     18 C18          4.1000    -1.0320     1.0870 ca         1 9V8      -0.207300
     19 C19          3.6350     0.1040     0.4420 ca         1 9V8      -0.017500
     20 C2          -0.2910     2.4270     0.2950 c5         1 9V8       0.140000
     21 C25         -5.1840    -2.4490     0.3500 ca         1 9V8      -0.120000
     22 C27         -7.5630    -1.8870     0.3860 ca         1 9V8      -0.001600
     23 C32          5.0560    -3.1970    -1.8550 c3         1 9V8       0.360800
     24 C36          4.0590    -1.0680     2.5850 c3         1 9V8       0.360800
     25 F33          5.6010    -4.1700    -1.1230 f          1 9V8      -0.109333
     26 F34          4.0560    -3.7450    -2.5580 f          1 9V8      -0.109333
     27 F35          5.9780    -2.8040    -2.7430 f          1 9V8      -0.109333
     28 F37          2.7970    -1.0780     3.0380 f          1 9V8      -0.109333
     29 F38          4.6670    -2.1420     3.0910 f          1 9V8      -0.109333
     30 F39          4.6480     0.0090     3.1200 f          1 9V8      -0.109333
     31 N10         -4.5100     1.7110    -0.1720 ns         1 9V8      -0.504900
     32 N29         -7.1620    -3.9450     0.8670 na         1 9V8      -0.069400
     33 N30         -8.4740    -3.7530     0.9140 nc         1 9V8      -0.155400
     34 N31         -8.7410    -2.5370     0.6320 nd         1 9V8      -0.209400
     35 O12          1.8820     3.6570    -2.3190 o          1 9V8      -0.537000
     36 O13          1.9140     1.7750    -1.0820 os         1 9V8      -0.462100
     37 O23         -6.5600     1.9010    -1.0980 o          1 9V8      -0.597100
     38 H1           0.0760     5.3140    -0.6200 h1         1 9V8       0.062450
     39 H2          -0.5950     4.6410    -2.1090 h1         1 9V8       0.062450
     40 H3          -2.2850     5.1390     0.0590 hc         1 9V8       0.102200
     41 H4          -2.2420     2.5000    -1.5730 hc         1 9V8       0.099700
     42 H5          -4.3200     3.7390     0.3370 h1         1 9V8       0.060700
     43 H6          -4.5720     3.4040    -1.3680 h1         1 9V8       0.060700
     44 H7           4.9360    -2.9990     0.8670 ha         1 9V8       0.151000
     45 H8           4.0870    -0.8680    -2.7560 ha         1 9V8       0.138500
     46 H9          -3.9210    -0.8380    -0.1580 ha         1 9V8       0.116000
     47 H10         -8.1140     0.1470    -0.0930 ha         1 9V8       0.158000
     48 H11         -2.0970     2.9520     1.4950 hc         1 9V8       0.102200
     49 H12          3.8940     2.2080    -1.5300 h1         1 9V8       0.065700
     50 H13          3.0580     1.2140    -2.7250 h1         1 9V8       0.065700
     51 H14          3.2740     0.9490     1.0140 ha         1 9V8       0.138500
     52 H15         -0.3270     1.3660     0.0430 h1         1 9V8       0.062450
     53 H16          0.3170     2.5400     1.1970 h1         1 9V8       0.062450
     54 H17         -4.3770    -3.1610     0.4470 ha         1 9V8       0.129000
     55 H18         -3.9260     1.1740     0.4490 hn         1 9V8       0.313500
     56 H19         -6.7830    -4.8580     1.0680 hn         1 9V8       0.385000
@<TRIPOS>BOND
     1     1     2 1   
     2     1    15 1   
     3     1    20 1   
     4     2     3 1   
     5     2    38 1   
     6     2    39 1   
     7     3     4 1   
     8     3    14 1   
     9     3    40 1   
    10     4     5 1   
    11     4    14 1   
    12     4    41 1   
    13     5    31 1   
    14     5    42 1   
    15     5    43 1   
    16     6     8 ar  
    17     6    16 1   
    18     6    19 ar  
    19     7    17 ar  
    20     7    18 ar  
    21     7    44 1   
    22     8    17 ar  
    23     8    45 1   
    24     9    10 1   
    25     9    31 1   
    26     9    37 2   
    27    10    11 ar  
    28    10    12 ar  
    29    11    21 ar  
    30    11    46 1   
    31    12    22 ar  
    32    12    47 1   
    33    13    21 ar  
    34    13    22 ar  
    35    13    32 1   
    36    14    20 1   
    37    14    48 1   
    38    15    35 2   
    39    15    36 1   
    40    16    36 1   
    41    16    49 1   
    42    16    50 1   
    43    17    23 1   
    44    18    19 ar  
    45    18    24 1   
    46    19    51 1   
    47    20    52 1   
    48    20    53 1   
    49    21    54 1   
    50    22    34 1   
    51    23    25 1   
    52    23    26 1   
    53    23    27 1   
    54    24    28 1   
    55    24    29 1   
    56    24    30 1   
    57    31    55 1   
    58    32    33 1   
    59    32    56 1   
    60    33    34 2   
@<TRIPOS>SUBSTRUCTURE
     1 9V8         1 TEMP              0 ****  ****    0 ROOT
