@<TRIPOS>MOLECULE
9VA
   27    27     1     0     0
SMALL
No Charge or Current Charge


@<TRIPOS>ATOM
      1 CAC         -0.8490     0.0210    -1.9130 c2         1 9VA       0.399200
      2 NFB         -2.0090    -0.3750    -1.4980 n2         1 9VA      -0.524900
      3 CFA         -2.4830     0.0050    -0.1250 c6         1 9VA       0.017500
      4 CFD         -2.4280    -1.2190     0.8380 c3         1 9VA       0.176600
      5 OFE         -3.2840    -2.2920     0.4110 oh         1 9VA      -0.642000
      6 CEZ         -1.7540     1.1980     0.5590 c          1 9VA       0.545000
      7 OFC         -2.2240     1.8030     1.5100 o          1 9VA      -0.555000
      8 NAA         -0.5610     1.5930    -0.0000 ns         1 9VA      -0.505900
      9 CAB          0.1320     0.8670    -1.0860 c6         1 9VA       0.022400
     10 CAH          1.2650    -0.0360    -0.5190 c3         1 9VA      -0.079400
     11 CAJ          2.3580     0.7230     0.2790 c3         1 9VA      -0.162400
     12 CAK          3.4780    -0.2210     0.7300 c          1 9VA       0.604100
     13 OAL          3.4050    -0.9160     1.7290 o          1 9VA      -0.601100
     14 NAM          4.5790    -0.2520    -0.0480 nt         1 9VA      -0.610000
     15 H76         -3.5300     0.3280    -0.2030 h1         1 9VA       0.116700
     16 H77         -1.3880    -1.5650     0.9070 h1         1 9VA       0.031700
     17 H78         -2.7300    -0.8870     1.8410 h1         1 9VA       0.031700
     18 H79         -3.1530    -3.0330     1.0440 ho         1 9VA       0.446000
     19 H80         -0.1080     2.3940     0.4250 hn         1 9VA       0.318500
     20 H81          0.5860     1.6140    -1.7530 h1         1 9VA       0.062700
     21 H82          0.8330    -0.8100     0.1280 hc         1 9VA       0.068700
     22 H83          1.7480    -0.5690    -1.3480 hc         1 9VA       0.068700
     23 H84          2.7730     1.4960    -0.3800 hc         1 9VA       0.056700
     24 H85          1.9040     1.1810     1.1650 hc         1 9VA       0.056700
     25 H86          4.6320     0.3250    -0.8740 hn         1 9VA       0.314500
     26 H87          5.3460    -0.8570     0.2060 hn         1 9VA       0.314500
     27 H2          -0.5180    -0.2570    -2.9100 h4         1 9VA       0.030800
@<TRIPOS>BOND
     1     1     2 2   
     2     1     9 1   
     3     1    27 1   
     4     2     3 1   
     5     3     4 1   
     6     3     6 1   
     7     3    15 1   
     8     4     5 1   
     9     4    16 1   
    10     4    17 1   
    11     5    18 1   
    12     6     7 2   
    13     6     8 1   
    14     8     9 1   
    15     8    19 1   
    16     9    10 1   
    17     9    20 1   
    18    10    11 1   
    19    10    21 1   
    20    10    22 1   
    21    11    12 1   
    22    11    23 1   
    23    11    24 1   
    24    12    13 2   
    25    12    14 1   
    26    14    25 1   
    27    14    26 1   
@<TRIPOS>SUBSTRUCTURE
     1 9VA         1 TEMP              0 ****  ****    0 ROOT
