@<TRIPOS>MOLECULE
9VA
   27    27     1     0     0
SMALL
abcg2


@<TRIPOS>ATOM
      1 CAC         -0.9690    -0.0440    -1.8170 c2         1 9VA       0.399200
      2 NFB         -2.1120    -0.3440    -1.3800 n2         1 9VA      -0.524900
      3 CFA         -2.4830     0.0770    -0.0470 c6         1 9VA       0.017500
      4 CFD         -2.4360    -1.1130     0.9140 c3         1 9VA       0.176600
      5 OFE         -3.3040    -2.1090     0.4400 oh         1 9VA      -0.642000
      6 CEZ         -1.6820     1.2180     0.5570 c          1 9VA       0.545000
      7 OFC         -2.1250     1.8590     1.5000 o          1 9VA      -0.555000
      8 NAA         -0.4900     1.4680     0.0000 ns         1 9VA      -0.505900
      9 CAB          0.0890     0.7350    -1.1010 c6         1 9VA       0.022400
     10 CAH          1.2130    -0.2170    -0.6730 c3         1 9VA      -0.079400
     11 CAJ          2.3630     0.5120     0.0020 c3         1 9VA      -0.162400
     12 CAK          3.5060    -0.4120     0.3720 c          1 9VA       0.604100
     13 OAL          3.3320    -1.5970     0.6190 o          1 9VA      -0.601100
     14 NAM          4.7100     0.1760     0.4290 nt         1 9VA      -0.610000
     15 H76         -3.5210     0.4230    -0.0860 h1         1 9VA       0.116700
     16 H77         -1.4010    -1.4740     0.9860 h1         1 9VA       0.031700
     17 H78         -2.7260    -0.7590     1.9100 h1         1 9VA       0.031700
     18 H79         -3.2760    -2.8440     1.0590 ho         1 9VA       0.446000
     19 H80          0.0340     2.2460     0.3760 hn         1 9VA       0.318500
     20 H81          0.5070     1.4590    -1.8080 h1         1 9VA       0.062700
     21 H82          0.8050    -0.9820    -0.0100 hc         1 9VA       0.068700
     22 H83          1.5750    -0.7320    -1.5670 hc         1 9VA       0.068700
     23 H84          2.7260     1.3240    -0.6340 hc         1 9VA       0.056700
     24 H85          2.0220     0.9840     0.9290 hc         1 9VA       0.056700
     25 H86          4.8360     1.1520     0.2270 hn         1 9VA       0.314500
     26 H87          5.5190    -0.3460     0.7220 hn         1 9VA       0.314500
     27 H2          -0.6910    -0.4010    -2.8070 h4         1 9VA       0.030800
@<TRIPOS>BOND
     1     1     2 2   
     2     1     9 1   
     3     1    27 1   
     4     2     3 1   
     5     3     4 1   
     6     3     6 1   
     7     3    15 1   
     8     4     5 1   
     9     4    16 1   
    10     4    17 1   
    11     5    18 1   
    12     6     7 2   
    13     6     8 1   
    14     8     9 1   
    15     8    19 1   
    16     9    10 1   
    17     9    20 1   
    18    10    11 1   
    19    10    21 1   
    20    10    22 1   
    21    11    12 1   
    22    11    23 1   
    23    11    24 1   
    24    12    13 2   
    25    12    14 1   
    26    14    25 1   
    27    14    26 1   
@<TRIPOS>SUBSTRUCTURE
     1 9VA         1 TEMP              0 ****  ****    0 ROOT
