@<TRIPOS>MOLECULE
9VC
   39    39     1     0     0
SMALL
bcc


@<TRIPOS>ATOM
      1 C15         -9.4920    16.3510    10.4800 ca         1 9VC      -0.114300
      2 C17         -9.6530    16.4850     8.0740 ca         1 9VC      -0.134500
      3 C20         -9.3350    17.7340    10.5300 ca         1 9VC      -0.102000
      4 C          -16.9400    18.9970    17.0060 c          1 9VC       0.936600
      5 CA         -16.1080    17.7420    17.3810 c3         1 9VC       0.020500
      6 CB         -16.3720    16.5180    16.5150 c3         1 9VC      -0.040400
      7 CG         -15.7900    16.5880    15.1050 c3         1 9VC      -0.066400
      8 CD         -14.2680    16.5010    15.0580 c3         1 9VC      -0.094400
      9 CE         -13.7510    16.5300    13.6270 c3         1 9VC       0.108000
     10 C11        -11.6250    15.8960    12.5810 c          1 9VC       0.749100
     11 C14         -9.4520    15.5300    11.7390 c3         1 9VC       0.209700
     12 C16         -9.6550    15.7360     9.2440 ca         1 9VC      -0.102000
     13 C18         -9.5020    17.8630     8.1310 ca         1 9VC      -0.124000
     14 C19         -9.3450    18.4860     9.3640 ca         1 9VC      -0.134500
     15 N          -16.4200    17.4210    18.7770 n8         1 9VC      -0.876800
     16 NZ         -12.3060    16.4700    13.5860 ns         1 9VC      -0.561900
     17 O12        -12.1140    15.3010    11.6440 o          1 9VC      -0.595000
     18 O13        -10.3010    16.0470    12.7590 os         1 9VC      -0.442900
     19 H17         -9.7810    15.9910     7.1190 ha         1 9VC       0.127000
     20 H20         -9.2030    18.2330    11.4830 ha         1 9VC       0.134500
     21 HA         -15.0480    18.0270    17.2690 h1         1 9VC      -0.009300
     22 HB2        -17.4500    16.3540    16.4550 hc         1 9VC       0.028700
     23 HB3        -15.9550    15.6340    17.0130 hc         1 9VC       0.028700
     24 HG2        -16.1230    17.5060    14.6150 hc         1 9VC       0.044700
     25 HG3        -16.2010    15.7630    14.5130 hc         1 9VC       0.044700
     26 HD2        -13.9340    15.5790    15.5430 hc         1 9VC       0.039200
     27 HD3        -13.8240    17.3280    15.6200 hc         1 9VC       0.039200
     28 HE2        -14.1140    17.4320    13.1230 h1         1 9VC       0.052700
     29 HE3        -14.1490    15.6780    13.0760 h1         1 9VC       0.052700
     30 H12         -9.6870    14.4860    11.5250 h1         1 9VC       0.059200
     31 H13         -8.4540    15.5590    12.1780 h1         1 9VC       0.059200
     32 H16         -9.7860    14.6610     9.1930 ha         1 9VC       0.134500
     33 H18         -9.5060    18.4500     7.2220 ha         1 9VC       0.125000
     34 H19         -9.2240    19.5610     9.4160 ha         1 9VC       0.127000
     35 H          -15.7550    16.7360    19.1180 hn         1 9VC       0.317300
     36 H2         -16.2690    18.2520    19.3340 hn         1 9VC       0.317300
     37 HZ         -11.7930    17.0130    14.2640 hn         1 9VC       0.322500
     38 O          -17.7920    18.9080    16.1030 o          1 9VC      -0.838800
     39 OXT        -16.6790    20.0160    17.6820 o          1 9VC      -0.838800
@<TRIPOS>BOND
     1     1     3 ar  
     2     1    11 1   
     3     1    12 ar  
     4     2    12 ar  
     5     2    13 ar  
     6     2    19 1   
     7     3    14 ar  
     8     3    20 1   
     9     4     5 1   
    10     4    38 1   
    11     4    39 1   
    12     5     6 1   
    13     5    15 1   
    14     5    21 1   
    15     6     7 1   
    16     6    22 1   
    17     6    23 1   
    18     7     8 1   
    19     7    24 1   
    20     7    25 1   
    21     8     9 1   
    22     8    26 1   
    23     8    27 1   
    24     9    16 1   
    25     9    28 1   
    26     9    29 1   
    27    10    16 1   
    28    10    17 2   
    29    10    18 1   
    30    11    18 1   
    31    11    30 1   
    32    11    31 1   
    33    12    32 1   
    34    13    14 ar  
    35    13    33 1   
    36    14    34 1   
    37    15    35 1   
    38    15    36 1   
    39    16    37 1   
@<TRIPOS>SUBSTRUCTURE
     1 9VC         1 TEMP              0 ****  ****    0 ROOT
