@<TRIPOS>MOLECULE
9VD
   16    15     1     0     0
SMALL
No Charge or Current Charge


@<TRIPOS>ATOM
      1 CDF         -1.4340    -0.7840    -0.1210 c          1 9VD       0.545900
      2 ODK         -2.4950    -0.5530     0.4560 o          1 9VD      -0.520100
      3 CDE         -0.3220     0.2920    -0.3520 c3         1 9VD       0.009500
      4 CDR          0.9800    -0.1160     0.4090 c3         1 9VD       0.179300
      5 CDS          2.1960     0.7800     0.0830 c3         1 9VD      -0.118100
      6 ODT          1.3280    -1.4680     0.0870 oh         1 9VD      -0.658000
      7 NDD         -0.7370     1.7210    -0.0620 n8         1 9VD      -0.989200
      8 H1          -1.2810    -1.7470    -0.6570 h4         1 9VD       0.000200
      9 H2          -0.0910     0.2380    -1.4250 h1         1 9VD       0.070700
     10 H3           0.7800    -0.0370     1.4880 h1         1 9VD       0.078700
     11 H4           2.0110     1.8150     0.3960 hc         1 9VD       0.048033
     12 H5           3.0890     0.4280     0.6130 hc         1 9VD       0.048033
     13 H6           2.4090     0.7820    -0.9930 hc         1 9VD       0.048033
     14 H7           1.9180    -1.4360    -0.6970 ho         1 9VD       0.440000
     15 H8          -1.5630     1.9610    -0.6290 hn         1 9VD       0.409000
     16 H9          -1.1010     1.7830     0.8990 hn         1 9VD       0.409000
@<TRIPOS>BOND
     1     1     2 2   
     2     1     3 1   
     3     1     8 1   
     4     3     4 1   
     5     3     7 1   
     6     3     9 1   
     7     4     5 1   
     8     4     6 1   
     9     4    10 1   
    10     5    11 1   
    11     5    12 1   
    12     5    13 1   
    13     6    14 1   
    14     7    15 1   
    15     7    16 1   
@<TRIPOS>SUBSTRUCTURE
     1 9VD         1 TEMP              0 ****  ****    0 ROOT
