@<TRIPOS>MOLECULE
9VD
   16    15     1     0     0
SMALL
abcg2


@<TRIPOS>ATOM
      1 CDF         -1.3570    -0.7470    -0.2010 c          1 9VD       0.545900
      2 ODK         -2.3800    -0.5780     0.4160 o          1 9VD      -0.520100
      3 CDE         -0.2940     0.3200    -0.3730 c3         1 9VD       0.009500
      4 CDR          0.9790    -0.0870     0.4040 c3         1 9VD       0.179300
      5 CDS          2.1570     0.8070     0.0610 c3         1 9VD      -0.118100
      6 ODT          1.2810    -1.4540     0.2180 oh         1 9VD      -0.658000
      7 NDD         -0.7010     1.6490     0.0160 n8         1 9VD      -0.989200
      8 H1          -1.1510    -1.7110    -0.6940 h4         1 9VD       0.000200
      9 H2          -0.0410     0.3250    -1.4420 h1         1 9VD       0.070700
     10 H3           0.7540     0.0150     1.4720 h1         1 9VD       0.078700
     11 H4           1.9280     1.8510     0.2670 hc         1 9VD       0.048033
     12 H5           3.0320     0.5250     0.6480 hc         1 9VD       0.048033
     13 H6           2.4150     0.7230    -0.9980 hc         1 9VD       0.048033
     14 H7           1.5950    -1.5780    -0.6850 ho         1 9VD       0.440000
     15 H8          -1.4610     1.9660    -0.5730 hn         1 9VD       0.409000
     16 H9          -1.0690     1.6350     0.9600 hn         1 9VD       0.409000
@<TRIPOS>BOND
     1     1     2 2   
     2     1     3 1   
     3     1     8 1   
     4     3     4 1   
     5     3     7 1   
     6     3     9 1   
     7     4     5 1   
     8     4     6 1   
     9     4    10 1   
    10     5    11 1   
    11     5    12 1   
    12     5    13 1   
    13     6    14 1   
    14     7    15 1   
    15     7    16 1   
@<TRIPOS>SUBSTRUCTURE
     1 9VD         1 TEMP              0 ****  ****    0 ROOT
