@<TRIPOS>MOLECULE
9VE
   82    86     1     0     0
SMALL
No Charge or Current Charge


@<TRIPOS>ATOM
      1 C            8.0100     2.5290    -1.2980 c3         1 9VE       0.385300
      2 O            7.4740     1.6210    -0.3110 os         1 9VE      -0.373100
      3 N           -2.3280     1.2670    -0.3000 n3         1 9VE      -0.745500
      4 Cl           0.2070    -0.9170    -3.7400 cl         1 9VE      -0.074500
      5 Cl1          1.4500    -4.1050     0.6580 cl         1 9VE      -0.074500
      6 C1           6.2040     1.0550    -0.3610 ca         1 9VE       0.071100
      7 N1          -9.0690     0.8360     1.8500 n          1 9VE      -0.401800
      8 C2           5.8200     0.1820     0.6850 ca         1 9VE       0.169100
      9 N2          -1.7600    -3.8320    -1.7700 na         1 9VE       0.258300
     10 O2           1.2750     0.2200    -0.6630 os         1 9VE      -0.452100
     11 C3           6.4300    -0.9320     2.8080 c3         1 9VE       0.193600
     12 O3          -7.0090     0.8010     2.8620 o          1 9VE      -0.587100
     13 C4           7.6570    -0.9460     3.7100 cx         1 9VE      -0.143700
     14 O4          -2.9320     0.1440    -2.5000 o          1 9VE      -0.562500
     15 C5           7.9080     0.1650     4.7060 cx         1 9VE      -0.115900
     16 O5          -3.2080    -1.1140    -0.2790 o          1 9VE      -0.562500
     17 C6           7.5310    -1.2160     5.1920 cx         1 9VE      -0.115900
     18 O6          -0.3080    -0.7340     0.6930 o          1 9VE      -0.454000
     19 C7           4.5380    -0.4150     0.6720 ca         1 9VE      -0.197000
     20 O7          -2.9980    -4.4630    -1.8850 oh         1 9VE      -0.442000
     21 C8           3.6330    -0.1480    -0.3730 ca         1 9VE      -0.076300
     22 C9           2.2500    -0.8030    -0.3770 c3         1 9VE       0.232600
     23 C11         -0.8620     1.3280    -0.6170 c5         1 9VE       0.165500
     24 C12         -4.9520     0.7890    -0.8830 ca         1 9VE      -0.320500
     25 C13         -5.6480     0.5810     0.3250 ca         1 9VE       0.030000
     26 C14         -6.9460     1.1030     0.5040 ca         1 9VE      -0.151600
     27 C15         -7.6530     0.8740     1.8220 c          1 9VE       0.611700
     28 C16         -9.7690     0.8520     3.1530 c3         1 9VE       0.084300
     29 C17         -9.8370     0.2680     0.7160 c3         1 9VE       0.084300
     30 C18         -7.5210     1.8750    -0.5310 ca         1 9VE      -0.023000
     31 C19         -6.8250     2.0840    -1.7330 ca         1 9VE      -0.133000
     32 C20         -5.5450     1.5400    -1.9160 ca         1 9VE      -0.022000
     33 C21         -2.7650     2.6730    -0.2140 c5         1 9VE       0.215800
     34 C22         -1.6630     3.2300     0.7090 c5         1 9VE      -0.099400
     35 C23         -0.3810     2.6660     0.0390 c5         1 9VE      -0.072400
     36 C24          2.1540    -1.9090    -1.4580 c3         1 9VE      -0.078100
     37 C25          0.7750    -2.5780    -1.5690 ca         1 9VE       0.059700
     38 C26         -0.1510    -2.1960    -2.5760 ca         1 9VE       0.094500
     39 C27         -1.4060    -2.8250    -2.6600 ca         1 9VE      -0.024500
     40 C28         -0.8810    -4.1910    -0.7550 ca         1 9VE       0.026200
     41 C29          0.3850    -3.5860    -0.6500 ca         1 9VE       0.094500
     42 C30          4.0200     0.7200    -1.4110 ca         1 9VE      -0.118000
     43 C31          5.2910     1.3180    -1.4090 ca         1 9VE      -0.072000
     44 F            8.0520     1.9550    -2.5240 f          1 9VE      -0.132500
     45 F1           7.2530     3.6470    -1.4020 f          1 9VE      -0.132500
     46 H1           9.0270     2.8270    -1.0230 h3         1 9VE       0.115700
     47 H2           5.5600    -0.5630     3.3670 h1         1 9VE       0.036200
     48 H3           6.2200    -1.9520     2.4600 h1         1 9VE       0.036200
     49 H4           8.5290    -1.3640     3.2110 hc         1 9VE       0.095700
     50 H5           8.9340     0.4920     4.8510 hc         1 9VE       0.077700
     51 H6           7.1630     0.9530     4.7900 hc         1 9VE       0.077700
     52 H7           6.5340    -1.3510     5.6070 hc         1 9VE       0.077700
     53 H8           8.3040    -1.8150     5.6660 hc         1 9VE       0.077700
     54 H9           4.2310    -1.0880     1.4670 ha         1 9VE       0.120000
     55 H10         -2.8420    -5.2280    -2.4810 ho         1 9VE       0.491000
     56 H11          2.0830    -1.2440     0.6160 h1         1 9VE       0.085700
     57 H12         -0.7030     1.3840    -1.7020 h1         1 9VE       0.074700
     58 H13         -5.1820     0.0080     1.1280 ha         1 9VE       0.156000
     59 H14         -9.6210    -0.1060     3.6670 h1         1 9VE       0.047367
     60 H15         -9.3750     1.6630     3.7800 h1         1 9VE       0.047367
     61 H16        -10.8440     1.0180     3.0030 h1         1 9VE       0.047367
     62 H17        -10.3470     1.0730     0.1720 h1         1 9VE       0.047367
     63 H18         -9.1760    -0.2750     0.0290 h1         1 9VE       0.047367
     64 H19        -10.5920    -0.4360     1.0890 h1         1 9VE       0.047367
     65 H20         -8.4960     2.3390    -0.4030 ha         1 9VE       0.133000
     66 H21         -7.2770     2.6790    -2.5240 ha         1 9VE       0.125000
     67 H22         -5.0170     1.7150    -2.8520 ha         1 9VE       0.115000
     68 H23         -2.7730     3.1660    -1.1970 h1         1 9VE       0.076700
     69 H24         -3.7580     2.7930     0.2420 h1         1 9VE       0.076700
     70 H25         -1.6700     4.3250     0.7590 hc         1 9VE       0.069700
     71 H26         -1.7810     2.8510     1.7310 hc         1 9VE       0.069700
     72 H27          0.4250     2.5240     0.7690 hc         1 9VE       0.073200
     73 H28          0.0030     3.3500    -0.7270 hc         1 9VE       0.073200
     74 H29          2.4690    -1.4900    -2.4190 hc         1 9VE       0.099200
     75 H30          2.9170    -2.6660    -1.2390 hc         1 9VE       0.099200
     76 H31         -2.1390    -2.5370    -3.4120 h4         1 9VE       0.208000
     77 H32         -1.2090    -4.9550    -0.0530 h4         1 9VE       0.208000
     78 H33          3.3320     0.9380    -2.2250 ha         1 9VE       0.126000
     79 H34          5.5430     1.9820    -2.2300 ha         1 9VE       0.143000
     80 O1           6.7270    -0.0650     1.7020 os         1 9VE      -0.313100
     81 C10          0.0250     0.1420    -0.0960 c          1 9VE       0.594100
     82 S           -3.2970     0.1090    -1.0810 sy         1 9VE       1.202600
@<TRIPOS>BOND
     1     1     2 1   
     2     1    44 1   
     3     1    45 1   
     4     1    46 1   
     5     2     6 1   
     6     3    23 1   
     7     3    33 1   
     8     3    82 1   
     9     4    38 1   
    10     5    41 1   
    11     6     8 ar  
    12     6    43 ar  
    13     7    27 1   
    14     7    28 1   
    15     7    29 1   
    16     8    19 ar  
    17     8    80 1   
    18     9    20 1   
    19     9    39 1   
    20     9    40 2   
    21    10    22 1   
    22    10    81 1   
    23    11    13 1   
    24    11    47 1   
    25    11    48 1   
    26    11    80 1   
    27    12    27 2   
    28    13    15 1   
    29    13    17 1   
    30    13    49 1   
    31    14    82 2   
    32    15    17 1   
    33    15    50 1   
    34    15    51 1   
    35    16    82 2   
    36    17    52 1   
    37    17    53 1   
    38    18    81 2   
    39    19    21 ar  
    40    19    54 1   
    41    20    55 1   
    42    21    22 1   
    43    21    42 ar  
    44    22    36 1   
    45    22    56 1   
    46    23    35 1   
    47    23    57 1   
    48    23    81 1   
    49    24    25 ar  
    50    24    32 ar  
    51    24    82 1   
    52    25    26 ar  
    53    25    58 1   
    54    26    27 1   
    55    26    30 ar  
    56    28    59 1   
    57    28    60 1   
    58    28    61 1   
    59    29    62 1   
    60    29    63 1   
    61    29    64 1   
    62    30    31 ar  
    63    30    65 1   
    64    31    32 ar  
    65    31    66 1   
    66    32    67 1   
    67    33    34 1   
    68    33    68 1   
    69    33    69 1   
    70    34    35 1   
    71    34    70 1   
    72    34    71 1   
    73    35    72 1   
    74    35    73 1   
    75    36    37 1   
    76    36    74 1   
    77    36    75 1   
    78    37    38 ar  
    79    37    41 ar  
    80    38    39 ar  
    81    39    76 1   
    82    40    41 ar  
    83    40    77 1   
    84    42    43 ar  
    85    42    78 1   
    86    43    79 1   
@<TRIPOS>SUBSTRUCTURE
     1 9VE         1 TEMP              0 ****  ****    0 ROOT
