@<TRIPOS>MOLECULE
9VE
   82    86     1     0     0
SMALL
abcg2


@<TRIPOS>ATOM
      1 C            6.6220     3.6110    -0.3200 c3         1 9VE       0.385300
      2 O            6.4370     2.4820    -1.0450 os         1 9VE      -0.373100
      3 N           -2.3990     0.2260     1.6570 n3         1 9VE      -0.745500
      4 CL          -0.6780    -1.1710    -2.8520 cl         1 9VE      -0.074500
      5 CL1          2.0780    -4.2220     0.6860 cl         1 9VE      -0.074500
      6 C1           5.3130     1.7250    -0.7860 ca         1 9VE       0.071100
      7 N1          -8.9230     2.0880    -0.1050 n          1 9VE      -0.401800
      8 C2           5.4520     0.6010     0.0400 ca         1 9VE       0.169100
      9 N2          -1.4680    -4.4150    -0.8840 na         1 9VE       0.258300
     10 O2           0.7460    -0.0930    -0.0530 os         1 9VE      -0.452100
     11 C3           6.8700    -0.7800     1.3540 c3         1 9VE       0.193600
     12 O3          -7.5460     2.7000     1.5810 o          1 9VE      -0.587100
     13 C4           8.3120    -0.8260     1.7410 cx         1 9VE      -0.143700
     14 O4          -2.7390    -1.7240     0.1770 o          1 9VE      -0.562500
     15 C5           8.8030     0.0260     2.8690 cx         1 9VE      -0.115900
     16 O5          -4.2420    -1.3690     2.1750 o          1 9VE      -0.562500
     17 C6           8.6810    -1.4550     3.0500 cx         1 9VE      -0.115900
     18 O6          -0.0420    -1.2540     1.6990 o          1 9VE      -0.454000
     19 C7           4.3340    -0.1960     0.2620 ca         1 9VE      -0.197000
     20 O7          -2.5560    -5.1970    -0.7220 oh         1 9VE      -0.442000
     21 C8           3.1110     0.1140    -0.3250 ca         1 9VE      -0.076300
     22 C9           1.9640    -0.8330    -0.0990 c3         1 9VE       0.232600
     23 C11         -1.2730     0.6360     0.8320 c5         1 9VE       0.165500
     24 C12         -4.5960     0.1100     0.0490 ca         1 9VE      -0.320500
     25 C13         -5.7310     0.6650     0.6230 ca         1 9VE       0.030000
     26 C14         -6.5700     1.4560    -0.1530 ca         1 9VE      -0.151600
     27 C15         -7.7330     2.1230     0.5170 c          1 9VE       0.611700
     28 C16        -10.0290     2.8620     0.4220 c3         1 9VE       0.084300
     29 C17         -9.2720     1.1760    -1.1780 c3         1 9VE       0.084300
     30 C18         -6.2450     1.7030    -1.4840 ca         1 9VE      -0.023000
     31 C19         -5.1060     1.1460    -2.0450 ca         1 9VE      -0.133000
     32 C20         -4.2770     0.3360    -1.2860 ca         1 9VE      -0.022000
     33 C21         -2.8180     1.2890     2.5850 c5         1 9VE       0.215800
     34 C22         -2.1560     2.5280     2.0040 c5         1 9VE      -0.099400
     35 C23         -0.8490     1.9840     1.4450 c5         1 9VE      -0.072400
     36 C24          1.8870    -1.8520    -1.2450 c3         1 9VE      -0.078100
     37 C25          0.6990    -2.7490    -1.1220 ca         1 9VE       0.059700
     38 C26         -0.4840    -2.5230    -1.8230 ca         1 9VE       0.094500
     39 C27         -1.5640    -3.3730    -1.7030 ca         1 9VE      -0.024500
     40 C28         -0.3890    -4.6780    -0.1440 ca         1 9VE       0.026200
     41 C29          0.7050    -3.8530    -0.2630 ca         1 9VE       0.094500
     42 C30          2.9920     1.2210    -1.1500 ca         1 9VE      -0.118000
     43 C31          4.1010     2.0280    -1.3710 ca         1 9VE      -0.072000
     44 F            5.6770     4.5390    -0.6130 f          1 9VE      -0.132500
     45 F1           6.4970     3.3780     1.0050 f          1 9VE      -0.132500
     46 H1           7.6080     4.0130    -0.5400 h3         1 9VE       0.115700
     47 H2           6.2360    -0.7350     2.2480 h1         1 9VE       0.036200
     48 H3           6.5930    -1.6790     0.7930 h1         1 9VE       0.036200
     49 H4           9.0010    -0.9880     0.9180 hc         1 9VE       0.095700
     50 H5           9.7950     0.4520     2.7850 hc         1 9VE       0.077700
     51 H6           8.0870     0.6630     3.3750 hc         1 9VE       0.077700
     52 H7           7.8800    -1.8250     3.6790 hc         1 9VE       0.077700
     53 H8           9.5840    -2.0490     3.0900 hc         1 9VE       0.077700
     54 H9           4.3970    -1.0650     0.9040 ha         1 9VE       0.120000
     55 H10         -2.4700    -5.9330    -1.3520 ho         1 9VE       0.491000
     56 H11          2.1100    -1.3530     0.8490 h1         1 9VE       0.085700
     57 H12         -1.5560     0.7940    -0.2150 h1         1 9VE       0.074700
     58 H13         -5.9810     0.4720     1.6570 ha         1 9VE       0.156000
     59 H14        -10.6660     2.2570     1.0710 h1         1 9VE       0.047367
     60 H15         -9.6710     3.7190     0.9840 h1         1 9VE       0.047367
     61 H16        -10.6350     3.2220    -0.4090 h1         1 9VE       0.047367
     62 H17         -9.3690     1.6970    -2.1320 h1         1 9VE       0.047367
     63 H18         -8.5400     0.3820    -1.2850 h1         1 9VE       0.047367
     64 H19        -10.2300     0.7090    -0.9480 h1         1 9VE       0.047367
     65 H20         -6.8790     2.3370    -2.0900 ha         1 9VE       0.133000
     66 H21         -4.8650     1.3380    -3.0810 ha         1 9VE       0.125000
     67 H22         -3.4060    -0.1170    -1.7380 ha         1 9VE       0.115000
     68 H23         -3.9030     1.3820     2.6400 h1         1 9VE       0.076700
     69 H24         -2.4540     1.0630     3.5880 h1         1 9VE       0.076700
     70 H25         -2.7720     2.9380     1.2010 hc         1 9VE       0.069700
     71 H26         -2.0060     3.3060     2.7500 hc         1 9VE       0.069700
     72 H27         -0.1290     1.8290     2.2510 hc         1 9VE       0.073200
     73 H28         -0.3860     2.6270     0.6990 hc         1 9VE       0.073200
     74 H29          1.8670    -1.3290    -2.2000 hc         1 9VE       0.099200
     75 H30          2.8010    -2.4480    -1.2340 hc         1 9VE       0.099200
     76 H31         -2.4920    -3.2470    -2.2400 h4         1 9VE       0.208000
     77 H32         -0.4290    -5.5380     0.5080 h4         1 9VE       0.208000
     78 H33          2.0520     1.4710    -1.6230 ha         1 9VE       0.126000
     79 H34          4.0220     2.8850    -2.0270 ha         1 9VE       0.143000
     80 O1           6.6660     0.3770     0.5500 os         1 9VE      -0.313100
     81 C10         -0.1480    -0.3700     0.8970 c          1 9VE       0.594100
     82 S           -3.4870    -0.8380     1.0560 sy         1 9VE       1.202600
@<TRIPOS>BOND
     1     1     2 1   
     2     1    44 1   
     3     1    45 1   
     4     1    46 1   
     5     2     6 1   
     6     3    23 1   
     7     3    33 1   
     8     3    82 1   
     9     4    38 1   
    10     5    41 1   
    11     6     8 ar  
    12     6    43 ar  
    13     7    27 1   
    14     7    28 1   
    15     7    29 1   
    16     8    19 ar  
    17     8    80 1   
    18     9    20 1   
    19     9    39 1   
    20     9    40 2   
    21    10    22 1   
    22    10    81 1   
    23    11    13 1   
    24    11    47 1   
    25    11    48 1   
    26    11    80 1   
    27    12    27 2   
    28    13    15 1   
    29    13    17 1   
    30    13    49 1   
    31    14    82 2   
    32    15    17 1   
    33    15    50 1   
    34    15    51 1   
    35    16    82 2   
    36    17    52 1   
    37    17    53 1   
    38    18    81 2   
    39    19    21 ar  
    40    19    54 1   
    41    20    55 1   
    42    21    22 1   
    43    21    42 ar  
    44    22    36 1   
    45    22    56 1   
    46    23    35 1   
    47    23    57 1   
    48    23    81 1   
    49    24    25 ar  
    50    24    32 ar  
    51    24    82 1   
    52    25    26 ar  
    53    25    58 1   
    54    26    27 1   
    55    26    30 ar  
    56    28    59 1   
    57    28    60 1   
    58    28    61 1   
    59    29    62 1   
    60    29    63 1   
    61    29    64 1   
    62    30    31 ar  
    63    30    65 1   
    64    31    32 ar  
    65    31    66 1   
    66    32    67 1   
    67    33    34 1   
    68    33    68 1   
    69    33    69 1   
    70    34    35 1   
    71    34    70 1   
    72    34    71 1   
    73    35    72 1   
    74    35    73 1   
    75    36    37 1   
    76    36    74 1   
    77    36    75 1   
    78    37    38 ar  
    79    37    41 ar  
    80    38    39 ar  
    81    39    76 1   
    82    40    41 ar  
    83    40    77 1   
    84    42    43 ar  
    85    42    78 1   
    86    43    79 1   
@<TRIPOS>SUBSTRUCTURE
     1 9VE         1 TEMP              0 ****  ****    0 ROOT
