@<TRIPOS>MOLECULE
9VF
   41    40     1     0     0
SMALL
bcc


@<TRIPOS>ATOM
      1 CE         125.3280    32.5890    14.4610 c3         1 9VF       0.107000
      2 CB         123.1450    33.5000    17.5600 c3         1 9VF      -0.041400
      3 C1         130.6490    34.0750    11.2890 c3         1 9VF       0.012033
      4 C3         129.7200    31.1350    10.9250 c3         1 9VF       0.012033
      5 C4         127.6470    33.4090    11.1340 c3         1 9VF       0.012033
      6 C5         129.4460    32.5740    13.6110 c3         1 9VF       0.271200
      7 C7         127.4550    31.3830    14.3760 c          1 9VF       0.756100
      8 CG         125.0170    32.9710    15.9020 c3         1 9VF      -0.099400
      9 CD         123.5140    33.0680    16.1430 c3         1 9VF      -0.066400
     10 CA         123.4200    34.9710    17.8970 c3         1 9VF       0.007500
     11 C          122.2910    35.9330    17.4300 c          1 9VF       0.901600
     12 NZ         126.7440    32.5070    14.1720 ns         1 9VF      -0.606900
     13 N          123.7560    35.0890    19.3160 n8         1 9VF      -0.886800
     14 O6         128.7670    31.4170    14.1220 os         1 9VF      -0.410900
     15 O8         126.9770    30.3370    14.7690 o          1 9VF      -0.552000
     16 OXT        122.0900    36.9440    18.1350 o          1 9VF      -0.842300
     17 O          121.6990    35.6490    16.3680 o          1 9VF      -0.842300
     18 SI         129.3320    32.7990    11.7120 s6         1 9VF      -0.698200
     19 HE2        124.9030    33.3320    13.7840 h1         1 9VF       0.051200
     20 HE3        124.8590    31.6360    14.2130 h1         1 9VF       0.051200
     21 HB2        122.0900    33.2760    17.7440 hc         1 9VF       0.024700
     22 HB3        123.7110    32.8800    18.2630 hc         1 9VF       0.024700
     23 H11        130.4520    35.0300    11.7800 h1         1 9VF       0.057700
     24 H12        131.6420    33.7430    11.5950 h1         1 9VF       0.057700
     25 H13        130.6790    34.2600    10.2130 h1         1 9VF       0.057700
     26 H31        128.9770    30.3810    11.1910 h1         1 9VF       0.057700
     27 H32        129.7260    31.2160     9.8360 h1         1 9VF       0.057700
     28 H33        130.6970    30.7620    11.2340 h1         1 9VF       0.057700
     29 H41        126.8640    32.6660    11.2840 h1         1 9VF       0.057700
     30 H42        127.3460    34.3230    11.6490 h1         1 9VF       0.057700
     31 H43        127.6870    33.6360    10.0660 h1         1 9VF       0.057700
     32 H51        130.4990    32.3930    13.8410 h2         1 9VF       0.061200
     33 H52        129.1860    33.4760    14.1770 h2         1 9VF       0.061200
     34 HG2        125.4520    32.2270    16.5770 hc         1 9VF       0.045200
     35 HG3        125.5040    33.9230    16.1300 hc         1 9VF       0.045200
     36 HD2        123.0670    33.7610    15.4280 hc         1 9VF       0.044200
     37 HD3        123.0690    32.0880    15.9420 hc         1 9VF       0.044200
     38 HA         124.3170    35.2810    17.3410 h1         1 9VF       0.035700
     39 HZ         127.1990    33.3680    13.9220 hn         1 9VF       0.308500
     40 H          123.7130    36.0730    19.5540 hn         1 9VF       0.325800
     41 H2         123.0030    34.6730    19.8550 hn         1 9VF       0.325800
@<TRIPOS>BOND
     1     1     8 1   
     2     1    12 1   
     3     1    19 1   
     4     1    20 1   
     5     2     9 1   
     6     2    10 1   
     7     2    21 1   
     8     2    22 1   
     9     3    18 1   
    10     3    23 1   
    11     3    24 1   
    12     3    25 1   
    13     4    18 1   
    14     4    26 1   
    15     4    27 1   
    16     4    28 1   
    17     5    18 1   
    18     5    29 1   
    19     5    30 1   
    20     5    31 1   
    21     6    14 1   
    22     6    18 1   
    23     6    32 1   
    24     6    33 1   
    25     7    12 1   
    26     7    14 1   
    27     7    15 2   
    28     8     9 1   
    29     8    34 1   
    30     8    35 1   
    31     9    36 1   
    32     9    37 1   
    33    10    11 1   
    34    10    13 1   
    35    10    38 1   
    36    11    16 1   
    37    11    17 1   
    38    12    39 1   
    39    13    40 1   
    40    13    41 1   
@<TRIPOS>SUBSTRUCTURE
     1 9VF         1 TEMP              0 ****  ****    0 ROOT
