@<TRIPOS>MOLECULE
9VG
   56    61     1     0     0
SMALL
No Charge or Current Charge


@<TRIPOS>ATOM
      1 CAA         -8.4300     7.1340    -2.5290 c3         1 9VG       0.151900
      2 OAU         -8.9680     6.2900    -3.5630 os         1 9VG      -0.439100
      3 CAW        -10.0620     6.7350    -4.2560 c          1 9VG       0.598300
      4 OAC        -10.6080     7.8110    -4.0560 o          1 9VG      -0.486000
      5 CAN        -10.4640     5.7350    -5.2860 ce         1 9VG      -0.266200
      6 CAX        -11.5050     5.8220    -6.1580 c2         1 9VG      -0.016400
      7 CAB        -12.4840     6.9880    -6.1870 c3         1 9VG      -0.072900
      8 CBJ        -11.7970     4.7220    -7.1580 cx         1 9VG       0.113200
      9 OAV        -12.1180     5.2420    -8.4820 op         1 9VG      -0.375000
     10 CBK        -10.9740     4.3630    -8.3990 cx         1 9VG       0.167300
     11 CAZ        -11.2100     3.0040    -9.0980 ca         1 9VG      -0.069300
     12 CAS        -10.4270     2.5640   -10.1840 ca         1 9VG      -0.066000
     13 CAY        -10.6730     1.3430   -10.8150 ca         1 9VG       0.179100
     14 OAF         -9.8610     0.9960   -11.8540 oh         1 9VG      -0.542100
     15 CBF        -11.7280     0.5020   -10.3920 ca         1 9VG      -0.220600
     16 CBB        -11.9710    -0.8200   -11.0950 c          1 9VG       0.611300
     17 OAD        -11.2580    -1.1770   -12.0290 o          1 9VG      -0.570100
     18 CBD        -13.1040    -1.6890   -10.6270 ca         1 9VG      -0.129600
     19 CAQ        -13.3520    -2.9240   -11.2720 ca         1 9VG      -0.062000
     20 CAO        -14.4030    -3.7530   -10.8540 ca         1 9VG      -0.101000
     21 CAP        -15.2190    -3.3590    -9.7860 ca         1 9VG      -0.095000
     22 CAR        -14.9830    -2.1370    -9.1380 ca         1 9VG      -0.069000
     23 CBE        -13.9250    -1.2890    -9.5490 ca         1 9VG      -0.121600
     24 CBC        -13.6940     0.0210    -8.8310 c          1 9VG       0.607300
     25 OAE        -14.4290     0.3170    -7.8930 o          1 9VG      -0.560100
     26 CBG        -12.5530     0.9210    -9.3030 ca         1 9VG      -0.186600
     27 CBA        -12.2850     2.1740    -8.6730 ca         1 9VG       0.349000
     28 NAT        -13.0590     2.6150    -7.5970 nu         1 9VG      -0.771200
     29 CBI        -12.4900     3.4650    -6.5530 c6         1 9VG       0.339600
     30 CAK        -11.4650     2.6590    -5.8430 c1         1 9VG      -0.169100
     31 CAI        -10.4660     2.0930    -5.4410 cg         1 9VG      -0.131300
     32 CAM         -9.1300     1.6070    -5.2090 ce         1 9VG      -0.050700
     33 CAL         -8.0580     2.0970    -5.9170 cf         1 9VG      -0.048700
     34 CAH         -8.2360     3.1250    -6.9050 ch         1 9VG      -0.129300
     35 CAJ         -8.6800     3.9800    -7.6450 c1         1 9VG      -0.176100
     36 CBH         -9.5180     4.9360    -8.3800 c3         1 9VG       0.295400
     37 OAG         -8.9620     5.2410    -9.6650 oh         1 9VG      -0.692000
     38 H1          -7.5610     6.6560    -2.0590 h1         1 9VG       0.048700
     39 H2          -8.1060     8.0990    -2.9400 h1         1 9VG       0.048700
     40 H3          -9.1780     7.3210    -1.7480 h1         1 9VG       0.048700
     41 H4          -9.8180     4.8640    -5.2890 ha         1 9VG       0.209000
     42 H5         -12.9070     7.1740    -5.1930 hc         1 9VG       0.065700
     43 H6         -11.9910     7.9070    -6.5230 hc         1 9VG       0.065700
     44 H7         -13.3340     6.8080    -6.8560 hc         1 9VG       0.065700
     45 H8          -9.6100     3.1550   -10.5730 ha         1 9VG       0.157000
     46 H9         -10.1760     0.1100   -12.1730 ho         1 9VG       0.515000
     47 H10        -12.7290    -3.2470   -12.1040 ha         1 9VG       0.139000
     48 H11        -14.5840    -4.7000   -11.3580 ha         1 9VG       0.122000
     49 H12        -16.0350    -4.0000    -9.4580 ha         1 9VG       0.121000
     50 H13        -15.6300    -1.8520    -8.3100 ha         1 9VG       0.139000
     51 H14        -13.7940     1.9660    -7.3190 hn         1 9VG       0.364000
     52 H15        -13.2470     3.7760    -5.8160 h1         1 9VG       0.101700
     53 H16         -8.9870     0.8290    -4.4580 ha         1 9VG       0.202000
     54 H18         -7.0530     1.7140    -5.7320 ha         1 9VG       0.203000
     55 H20         -9.5280     5.8660    -7.7970 h1         1 9VG       0.066700
     56 H21         -8.0290     5.5090    -9.5010 ho         1 9VG       0.520000
@<TRIPOS>BOND
     1     1     2 1   
     2     1    38 1   
     3     1    39 1   
     4     1    40 1   
     5     2     3 1   
     6     3     4 2   
     7     3     5 1   
     8     5     6 2   
     9     5    41 1   
    10     6     7 1   
    11     6     8 1   
    12     7    42 1   
    13     7    43 1   
    14     7    44 1   
    15     8     9 1   
    16     8    10 1   
    17     8    29 1   
    18     9    10 1   
    19    10    11 1   
    20    10    36 1   
    21    11    12 ar  
    22    11    27 ar  
    23    12    13 ar  
    24    12    45 1   
    25    13    14 1   
    26    13    15 ar  
    27    14    46 1   
    28    15    16 1   
    29    15    26 ar  
    30    16    17 2   
    31    16    18 1   
    32    18    19 ar  
    33    18    23 ar  
    34    19    20 ar  
    35    19    47 1   
    36    20    21 ar  
    37    20    48 1   
    38    21    22 ar  
    39    21    49 1   
    40    22    23 ar  
    41    22    50 1   
    42    23    24 1   
    43    24    25 2   
    44    24    26 1   
    45    26    27 ar  
    46    27    28 1   
    47    28    29 1   
    48    28    51 1   
    49    29    30 1   
    50    29    52 1   
    51    30    31 3   
    52    31    32 1   
    53    32    33 2   
    54    32    53 1   
    55    33    34 1   
    56    33    54 1   
    57    34    35 3   
    58    35    36 1   
    59    36    37 1   
    60    36    55 1   
    61    37    56 1   
@<TRIPOS>SUBSTRUCTURE
     1 9VG         1 TEMP              0 ****  ****    0 ROOT
