@<TRIPOS>MOLECULE
9VG
   56    61     1     0     0
SMALL
bcc


@<TRIPOS>ATOM
      1 CAA         -8.4700     7.1200    -2.6300 c3         1 9VG       0.128700
      2 OAU         -8.9880     6.2480    -3.6330 os         1 9VG      -0.415900
      3 CAW        -10.0590     6.6560    -4.3050 c          1 9VG       0.647300
      4 OAC        -10.6040     7.7150    -4.0990 o          1 9VG      -0.535000
      5 CAN        -10.4310     5.6410    -5.3090 ce         1 9VG      -0.216200
      6 CAX        -11.4810     5.6960    -6.1360 c2         1 9VG      -0.016400
      7 CAB        -12.5250     6.7660    -6.1990 c3         1 9VG      -0.072900
      8 CBJ        -11.7520     4.5720    -7.0970 cx         1 9VG       0.090000
      9 OAV        -12.1740     4.9960    -8.3700 op         1 9VG      -0.328600
     10 CBK        -10.9680     4.2420    -8.2960 cx         1 9VG       0.144100
     11 CAZ        -11.1360     2.8720    -8.8920 ca         1 9VG      -0.069300
     12 CAS        -10.2840     2.3970    -9.8530 ca         1 9VG      -0.084000
     13 CAY        -10.5130     1.1760   -10.5070 ca         1 9VG       0.179100
     14 OAF         -9.6130     0.8070   -11.4120 oh         1 9VG      -0.503100
     15 CBF        -11.6570     0.4410   -10.2060 ca         1 9VG      -0.220600
     16 CBB        -11.8890    -0.8090   -10.9210 c          1 9VG       0.611300
     17 OAD        -11.0970    -1.2130   -11.7740 o          1 9VG      -0.570100
     18 CBD        -13.0900    -1.5930   -10.6000 ca         1 9VG      -0.129600
     19 CAQ        -13.3430    -2.7810   -11.2820 ca         1 9VG      -0.080000
     20 CAO        -14.4720    -3.5240   -10.9830 ca         1 9VG      -0.119000
     21 CAP        -15.3520    -3.0860   -10.0000 ca         1 9VG      -0.113000
     22 CAR        -15.1050    -1.9070    -9.3170 ca         1 9VG      -0.087000
     23 CBE        -13.9730    -1.1520    -9.6110 ca         1 9VG      -0.121600
     24 CBC        -13.7350     0.1100    -8.8690 c          1 9VG       0.607300
     25 OAE        -14.5410     0.4520    -8.0120 o          1 9VG      -0.560100
     26 CBG        -12.5480     0.9020    -9.1980 ca         1 9VG      -0.186600
     27 CBA        -12.2770     2.0990    -8.5180 ca         1 9VG       0.210600
     28 NAT        -13.0590     2.5680    -7.5060 nu         1 9VG      -0.737600
     29 CBI        -12.4490     3.3590    -6.4730 c6         1 9VG       0.339600
     30 CAK        -11.3540     2.6410    -5.7950 c1         1 9VG      -0.169100
     31 CAI        -10.2930     2.1500    -5.4950 cg         1 9VG      -0.131300
     32 CAM         -8.9520     1.7400    -5.2820 ce         1 9VG      -0.000700
     33 CAL         -7.9500     2.2860    -6.0040 cf         1 9VG       0.001300
     34 CAH         -8.2420     3.2740    -6.9780 ch         1 9VG      -0.129300
     35 CAJ         -8.6990     4.0860    -7.7460 c1         1 9VG      -0.176100
     36 CBH         -9.6350     4.9590    -8.4770 c3         1 9VG       0.272200
     37 OAG         -9.3540     5.1720    -9.8290 oh         1 9VG      -0.569800
     38 H1          -7.5850     6.6280    -2.2370 h1         1 9VG       0.048700
     39 H2          -8.1910     8.0880    -3.0460 h1         1 9VG       0.048700
     40 H3          -9.1870     7.2700    -1.8230 h1         1 9VG       0.048700
     41 H4          -9.7640     4.7930    -5.3660 ha         1 9VG       0.159000
     42 H5         -12.5330     7.3900    -5.3150 hc         1 9VG       0.065700
     43 H6         -12.3570     7.4070    -7.0660 hc         1 9VG       0.065700
     44 H7         -13.5150     6.3240    -6.3230 hc         1 9VG       0.065700
     45 H8          -9.4150     2.9620   -10.1580 ha         1 9VG       0.175000
     46 H9          -9.9140    -0.0500   -11.7940 ho         1 9VG       0.476000
     47 H10        -12.6580    -3.1230   -12.0460 ha         1 9VG       0.157000
     48 H11        -14.6670    -4.4460   -11.5130 ha         1 9VG       0.140000
     49 H12        -16.2340    -3.6670    -9.7650 ha         1 9VG       0.139000
     50 H13        -15.7950    -1.5710    -8.5560 ha         1 9VG       0.157000
     51 H14        -13.8160     1.9630    -7.2210 hn         1 9VG       0.468800
     52 H15        -13.2310     3.6610    -5.7750 h1         1 9VG       0.101700
     53 H16         -8.7330     0.9900    -4.5320 ha         1 9VG       0.152000
     54 H18         -6.9270     1.9750    -5.8390 ha         1 9VG       0.153000
     55 H20         -9.6910     5.9140    -7.9420 h1         1 9VG       0.066700
     56 H21         -8.5690     5.7260    -9.8940 ho         1 9VG       0.421000
@<TRIPOS>BOND
     1     1     2 1   
     2     1    38 1   
     3     1    39 1   
     4     1    40 1   
     5     2     3 1   
     6     3     4 2   
     7     3     5 1   
     8     5     6 2   
     9     5    41 1   
    10     6     7 1   
    11     6     8 1   
    12     7    42 1   
    13     7    43 1   
    14     7    44 1   
    15     8     9 1   
    16     8    10 1   
    17     8    29 1   
    18     9    10 1   
    19    10    11 1   
    20    10    36 1   
    21    11    12 ar  
    22    11    27 ar  
    23    12    13 ar  
    24    12    45 1   
    25    13    14 1   
    26    13    15 ar  
    27    14    46 1   
    28    15    16 1   
    29    15    26 ar  
    30    16    17 2   
    31    16    18 1   
    32    18    19 ar  
    33    18    23 ar  
    34    19    20 ar  
    35    19    47 1   
    36    20    21 ar  
    37    20    48 1   
    38    21    22 ar  
    39    21    49 1   
    40    22    23 ar  
    41    22    50 1   
    42    23    24 1   
    43    24    25 2   
    44    24    26 1   
    45    26    27 ar  
    46    27    28 1   
    47    28    29 1   
    48    28    51 1   
    49    29    30 1   
    50    29    52 1   
    51    30    31 3   
    52    31    32 1   
    53    32    33 2   
    54    32    53 1   
    55    33    34 1   
    56    33    54 1   
    57    34    35 3   
    58    35    36 1   
    59    36    37 1   
    60    36    55 1   
    61    37    56 1   
@<TRIPOS>SUBSTRUCTURE
     1 9VG         1 TEMP              0 ****  ****    0 ROOT
