@<TRIPOS>MOLECULE
9VH
   25    25     1     0     0
SMALL
No Charge or Current Charge


@<TRIPOS>ATOM
      1 O1          19.9970   -94.2040    14.1280 o          1 9VH      -0.699533
      2 S1          20.7450   -93.7380    12.9520 s6         1 9VH       1.341600
      3 O2          21.9020   -94.5720    12.5970 o          1 9VH      -0.699533
      4 O3          21.0080   -92.2930    12.9290 o          1 9VH      -0.699533
      5 C1          19.5920   -94.0100    11.5740 c3         1 9VH      -0.363400
      6 C2          18.1940   -93.2910    11.6260 c6         1 9VH      -0.062700
      7 C3          18.2780   -91.7690    11.2570 c6         1 9VH       0.143800
      8 N1          17.7380   -91.4800     9.9030 n7         1 9VH      -0.858400
      9 C4          16.2890   -91.8200     9.7800 c6         1 9VH       0.157800
     10 C5          15.8900   -93.1510    10.5040 c6         1 9VH       0.127300
     11 O4          14.9130   -93.8910     9.7530 oh         1 9VH      -0.682000
     12 C6          17.1460   -94.0400    10.7410 c6         1 9VH       0.134300
     13 O5          16.7620   -95.2830    11.3550 oh         1 9VH      -0.679000
     14 H1          19.4470   -95.0950    11.5570 h1         1 9VH       0.063200
     15 H2          20.1230   -93.7230    10.6610 h1         1 9VH       0.063200
     16 H3          17.8500   -93.3500    12.6690 hc         1 9VH       0.084700
     17 H4          19.3180   -91.4150    11.3150 h1         1 9VH       0.075700
     18 H5          17.7100   -91.1880    12.0010 h1         1 9VH       0.075700
     19 H6          18.2630   -92.0570     9.2340 hn         1 9VH       0.405000
     20 H8          15.6910   -91.0030    10.2110 h1         1 9VH       0.048700
     21 H9          16.0290   -91.8780     8.7120 h1         1 9VH       0.048700
     22 H10         15.4790   -92.8880    11.4900 h1         1 9VH       0.046700
     23 H11         15.0320   -94.8190    10.0650 ho         1 9VH       0.450000
     24 H12         17.6060   -94.2440     9.7620 h1         1 9VH       0.031700
     25 H13         17.5960   -95.7120    11.6450 ho         1 9VH       0.444000
@<TRIPOS>BOND
     1     1     2 1   
     2     2     3 1   
     3     2     4 1   
     4     2     5 1   
     5     5     6 1   
     6     5    14 1   
     7     5    15 1   
     8     6     7 1   
     9     6    12 1   
    10     6    16 1   
    11     7     8 1   
    12     7    17 1   
    13     7    18 1   
    14     8     9 1   
    15     8    19 1   
    16     9    10 1   
    17     9    20 1   
    18     9    21 1   
    19    10    11 1   
    20    10    12 1   
    21    10    22 1   
    22    11    23 1   
    23    12    13 1   
    24    12    24 1   
    25    13    25 1   
@<TRIPOS>SUBSTRUCTURE
     1 9VH         1 TEMP              0 ****  ****    0 ROOT
