@<TRIPOS>MOLECULE
9VH
   25    25     1     0     0
SMALL
abcg2


@<TRIPOS>ATOM
      1 O1          20.0850   -94.1110    14.1200 o          1 9VH      -0.699533
      2 S1          20.7410   -93.6510    12.8870 s6         1 9VH       1.341600
      3 O2          21.9270   -94.4480    12.5400 o          1 9VH      -0.699533
      4 O3          21.0130   -92.2060    12.8990 o          1 9VH      -0.699533
      5 C1          19.5730   -93.9670    11.5540 c3         1 9VH      -0.363400
      6 C2          18.2090   -93.2920    11.6920 c6         1 9VH      -0.062700
      7 C3          18.2290   -91.7830    11.3310 c6         1 9VH       0.143800
      8 N1          17.7830   -91.4990     9.9650 n7         1 9VH      -0.858400
      9 C4          16.3890   -91.9050     9.7530 c6         1 9VH       0.157800
     10 C5          15.9750   -93.1560    10.5470 c6         1 9VH       0.127300
     11 O4          14.9840   -93.8540     9.7920 oh         1 9VH      -0.682000
     12 C6          17.1860   -94.0340    10.8140 c6         1 9VH       0.134300
     13 O5          16.7280   -95.2350    11.4510 oh         1 9VH      -0.679000
     14 H1          19.4650   -95.0530    11.5400 h1         1 9VH       0.063200
     15 H2          20.0700   -93.6650    10.6290 h1         1 9VH       0.063200
     16 H3          17.8690   -93.4050    12.7250 hc         1 9VH       0.084700
     17 H4          19.2330   -91.3870    11.4720 h1         1 9VH       0.075700
     18 H5          17.5710   -91.2370    12.0110 h1         1 9VH       0.075700
     19 H6          18.3830   -91.9840     9.3080 hn         1 9VH       0.405000
     20 H8          15.7260   -91.0770    10.0180 h1         1 9VH       0.048700
     21 H9          16.2450   -92.1160     8.6920 h1         1 9VH       0.048700
     22 H10         15.5480   -92.8660    11.5160 h1         1 9VH       0.046700
     23 H11         14.8400   -94.6980    10.2430 ho         1 9VH       0.450000
     24 H12         17.6370   -94.2940     9.8510 h1         1 9VH       0.031700
     25 H13         17.1890   -95.9900    11.0690 ho         1 9VH       0.444000
@<TRIPOS>BOND
     1     1     2 1   
     2     2     3 1   
     3     2     4 1   
     4     2     5 1   
     5     5     6 1   
     6     5    14 1   
     7     5    15 1   
     8     6     7 1   
     9     6    12 1   
    10     6    16 1   
    11     7     8 1   
    12     7    17 1   
    13     7    18 1   
    14     8     9 1   
    15     8    19 1   
    16     9    10 1   
    17     9    20 1   
    18     9    21 1   
    19    10    11 1   
    20    10    12 1   
    21    10    22 1   
    22    11    23 1   
    23    12    13 1   
    24    12    24 1   
    25    13    25 1   
@<TRIPOS>SUBSTRUCTURE
     1 9VH         1 TEMP              0 ****  ****    0 ROOT
