@<TRIPOS>MOLECULE
9VI
   81    87     1     0     0
SMALL
No Charge or Current Charge


@<TRIPOS>ATOM
      1 C10        -19.0380    27.2490   -11.5570 ca         1 9VI      -0.221900
      2 C13        -19.9910    25.4480   -10.2830 ca         1 9VI      -0.151000
      3 C15        -17.5650    25.8480   -10.2260 ca         1 9VI      -0.011400
      4 C17        -15.9140    26.4790    -8.5400 c          1 9VI       0.581600
      5 C20        -14.0560    27.1030    -6.9790 ca         1 9VI      -0.001000
      6 C21        -12.7570    26.8750    -6.5110 ca         1 9VI      -0.188000
      7 C22        -12.0180    25.8320    -7.0810 ca         1 9VI       0.122900
      8 C24        -13.7590    25.2380    -8.5240 ca         1 9VI       0.325000
      9 C26        -15.4650    24.5850    -9.9800 cc         1 9VI       0.506900
     10 C28        -15.3880    22.1790   -10.9670 c3         1 9VI      -0.044100
     11 C04        -18.8620    28.4400   -12.3430 cc         1 9VI       0.599800
     12 C07        -19.5700    31.1230   -11.1190 c3         1 9VI      -0.371100
     13 C11        -20.1710    26.5140   -11.1840 ca         1 9VI       0.217000
     14 C14        -18.7050    25.1400    -9.7810 ca         1 9VI      -0.048000
     15 C19        -14.5570    26.2690    -8.0020 ca         1 9VI      -0.257600
     16 C27        -15.9740    23.6160   -11.0590 c3         1 9VI       0.076400
     17 C29        -16.0390    21.2180   -11.9550 ca         1 9VI      -0.030300
     18 C30        -15.3900    20.8800   -13.1590 ca         1 9VI      -0.166500
     19 C31        -16.0080    20.0170   -14.0770 ca         1 9VI       0.204500
     20 C33        -17.2740    19.4810   -13.8070 ca         1 9VI      -0.194000
     21 C34        -17.9210    19.8130   -12.6100 ca         1 9VI       0.204500
     22 C36        -17.3110    20.6760   -11.6860 ca         1 9VI      -0.166500
     23 C40        -16.3570    24.5180   -14.7960 c3         1 9VI      -0.002400
     24 C43        -16.0970    27.9930   -15.3180 cc         1 9VI       0.166300
     25 C44        -17.4530    27.8430   -15.6930 cc         1 9VI      -0.107800
     26 C45        -17.7490    26.5360   -15.5160 cd         1 9VI      -0.104300
     27 C46        -19.0910    25.9400   -15.8860 c6         1 9VI      -0.004100
     28 C47        -20.2050    27.0360   -15.9240 c6         1 9VI      -0.040200
     29 C48        -19.7090    28.4260   -16.3550 c2         1 9VI      -0.207200
     30 C49        -18.4170    28.7970   -16.2070 ce         1 9VI      -0.128200
     31 C50        -15.3570    29.3220   -15.4020 c3         1 9VI       0.292700
     32 C54        -17.7880    26.9320   -11.1040 ca         1 9VI       0.003800
     33 F32        -15.3810    19.7040   -15.2310 f          1 9VI      -0.170000
     34 F35        -19.1420    19.3020   -12.3440 f          1 9VI      -0.170000
     35 F51        -16.0030    30.3080   -14.7390 f          1 9VI      -0.112000
     36 F52        -15.2220    29.7310   -16.6850 f          1 9VI      -0.112000
     37 F53        -14.1090    29.2530   -14.8790 f          1 9VI      -0.112000
     38 N02        -16.9370    27.8860   -11.6500 na         1 9VI       0.113600
     39 N03        -17.5980    28.8390   -12.4130 nd         1 9VI      -0.545100
     40 N05        -19.8500    29.1080   -12.9690 nu         1 9VI      -0.841300
     41 N16        -16.3000    25.6340    -9.5750 n          1 9VI      -0.253500
     42 N23        -12.5070    25.0410    -8.0550 nb         1 9VI      -0.128000
     43 N25        -14.2230    24.3810    -9.5270 nd         1 9VI      -0.702700
     44 N37        -15.8130    24.1360   -12.4350 ns         1 9VI      -0.507900
     45 N41        -16.5740    25.9410   -15.0570 na         1 9VI       0.164800
     46 N42        -15.5370    26.8530   -14.9300 nd         1 9VI      -0.498800
     47 O08        -19.1700    31.3860   -13.7360 o          1 9VI      -0.525000
     48 O09        -21.5160    30.9100   -12.8900 o          1 9VI      -0.525000
     49 O39        -17.9520    23.7900   -13.1450 o          1 9VI      -0.549100
     50 S06        -20.0690    30.7270   -12.7860 s6         1 9VI       1.232100
     51 Cl12       -21.7860    26.9140   -11.7570 cl         1 9VI      -0.169000
     52 H1         -20.8540    24.8780    -9.9480 ha         1 9VI       0.138000
     53 H2         -14.6540    27.9100    -6.5580 ha         1 9VI       0.144000
     54 H3         -12.3290    27.4940    -5.7260 ha         1 9VI       0.135000
     55 H4         -11.0030    25.6200    -6.7490 h4         1 9VI       0.028100
     56 H5         -15.5230    21.8030    -9.9450 hc         1 9VI       0.073200
     57 H6         -14.3050    22.2130   -11.1370 hc         1 9VI       0.073200
     58 H7         -15.0430    28.5580   -12.2890 h1         1 9VI       0.063367
     59 H8         -15.1680    28.2050   -10.5450 h1         1 9VI       0.063367
     60 H9         -15.0900    26.8650   -11.7370 h1         1 9VI       0.063367
     61 H10        -20.1390    30.4830   -10.4380 h1         1 9VI       0.107367
     62 H11        -18.4940    30.9480   -11.0350 h1         1 9VI       0.107367
     63 H12        -19.8050    32.1800   -10.9560 h1         1 9VI       0.107367
     64 H13        -18.5960    24.3470    -9.0440 ha         1 9VI       0.125000
     65 H14        -17.0450    23.4800   -10.8740 h1         1 9VI       0.111700
     66 H15        -14.4100    21.2900   -13.3900 ha         1 9VI       0.135000
     67 H16        -17.7500    18.8140   -14.5200 ha         1 9VI       0.153000
     68 H17        -17.8310    20.9270   -10.7650 ha         1 9VI       0.135000
     69 H18        -16.9290    23.9270   -15.5190 h1         1 9VI       0.087200
     70 H19        -15.2950    24.2790   -14.9180 h1         1 9VI       0.087200
     71 H20        -19.3790    25.1410   -15.1900 hc         1 9VI       0.054700
     72 H21        -19.0150    25.4730   -16.8780 hc         1 9VI       0.054700
     73 H22        -20.6420    27.1250   -14.9200 hc         1 9VI       0.064200
     74 H23        -21.0240    26.7090   -16.5780 hc         1 9VI       0.064200
     75 H24        -20.4550    29.1220   -16.7410 ha         1 9VI       0.178000
     76 H25        -18.0660    29.7980   -16.4650 ha         1 9VI       0.189000
     77 H26        -20.7650    28.7310   -12.7900 hn         1 9VI       0.519000
     78 H27        -14.8890    24.4320   -12.7320 hn         1 9VI       0.333500
     79 C01        -15.4700    27.8740   -11.5460 c3         1 9VI       0.078900
     80 O18        -16.6440    27.3660    -8.1160 o          1 9VI      -0.498000
     81 C38        -16.8030    24.1190   -13.3980 c          1 9VI       0.580100
@<TRIPOS>BOND
     1     1    11 1   
     2     1    13 ar  
     3     1    32 ar  
     4     2    13 ar  
     5     2    14 ar  
     6     2    52 1   
     7     3    14 ar  
     8     3    32 ar  
     9     3    41 1   
    10     4    15 1   
    11     4    41 1   
    12     4    80 2   
    13     5     6 ar  
    14     5    15 ar  
    15     5    53 1   
    16     6     7 ar  
    17     6    54 1   
    18     7    42 ar  
    19     7    55 1   
    20     8    15 ar  
    21     8    42 ar  
    22     8    43 1   
    23     9    16 1   
    24     9    41 1   
    25     9    43 2   
    26    10    16 1   
    27    10    17 1   
    28    10    56 1   
    29    10    57 1   
    30    11    39 2   
    31    11    40 1   
    32    12    50 1   
    33    12    61 1   
    34    12    62 1   
    35    12    63 1   
    36    13    51 1   
    37    14    64 1   
    38    16    44 1   
    39    16    65 1   
    40    17    18 ar  
    41    17    22 ar  
    42    18    19 ar  
    43    18    66 1   
    44    19    20 ar  
    45    19    33 1   
    46    20    21 ar  
    47    20    67 1   
    48    21    22 ar  
    49    21    34 1   
    50    22    68 1   
    51    23    45 1   
    52    23    69 1   
    53    23    70 1   
    54    23    81 1   
    55    24    25 1   
    56    24    31 1   
    57    24    46 2   
    58    25    26 2   
    59    25    30 1   
    60    26    27 1   
    61    26    45 1   
    62    27    28 1   
    63    27    71 1   
    64    27    72 1   
    65    28    29 1   
    66    28    73 1   
    67    28    74 1   
    68    29    30 2   
    69    29    75 1   
    70    30    76 1   
    71    31    35 1   
    72    31    36 1   
    73    31    37 1   
    74    32    38 1   
    75    38    39 1   
    76    38    79 1   
    77    40    50 1   
    78    40    77 1   
    79    44    78 1   
    80    44    81 1   
    81    45    46 1   
    82    47    50 2   
    83    48    50 2   
    84    49    81 2   
    85    58    79 1   
    86    59    79 1   
    87    60    79 1   
@<TRIPOS>SUBSTRUCTURE
     1 9VI         1 TEMP              0 ****  ****    0 ROOT
