@<TRIPOS>MOLECULE
9VI
   81    87     1     0     0
SMALL
abcg2


@<TRIPOS>ATOM
      1 C10        -19.3600    26.8060   -10.2010 ca         1 9VI      -0.221900
      2 C13        -19.7440    24.8560    -8.8640 ca         1 9VI      -0.151000
      3 C15        -17.4640    25.6010    -9.2440 ca         1 9VI      -0.011400
      4 C17        -15.4600    26.0700    -8.0010 c          1 9VI       0.581600
      5 C20        -13.2710    26.4420    -6.8940 ca         1 9VI      -0.001000
      6 C21        -11.9210    26.1840    -6.8510 ca         1 9VI      -0.188000
      7 C22        -11.3830    25.3200    -7.8090 ca         1 9VI       0.122900
      8 C24        -13.3970    24.9840    -8.8070 ca         1 9VI       0.325000
      9 C26        -15.3510    24.5870    -9.9200 cc         1 9VI       0.506900
     10 C28        -15.9760    22.4010   -10.9930 c3         1 9VI      -0.044100
     11 C04        -19.4680    27.9520   -11.0330 cc         1 9VI       0.599800
     12 C07        -19.9730    30.6890   -13.0820 c3         1 9VI      -0.371100
     13 C11        -20.2400    25.8880    -9.6220 ca         1 9VI       0.217000
     14 C14        -18.3580    24.7250    -8.6810 ca         1 9VI      -0.048000
     15 C19        -14.0310    25.8320    -7.8910 ca         1 9VI      -0.257600
     16 C27        -16.0740    23.9310   -11.0790 c3         1 9VI       0.076400
     17 C29        -16.8120    21.7800   -12.0730 ca         1 9VI      -0.030300
     18 C30        -16.2550    21.4630   -13.3080 ca         1 9VI      -0.166500
     19 C31        -17.0770    20.9660   -14.3020 ca         1 9VI       0.204500
     20 C33        -18.4310    20.7630   -14.1230 ca         1 9VI      -0.194000
     21 C34        -18.9490    21.0850   -12.8830 ca         1 9VI       0.204500
     22 C36        -18.1750    21.5890   -11.8580 ca         1 9VI      -0.166500
     23 C40        -15.4860    25.4330   -14.5000 c3         1 9VI      -0.002400
     24 C43        -16.1940    28.7290   -15.3040 cc         1 9VI       0.166300
     25 C44        -17.1540    28.1530   -16.1530 cc         1 9VI      -0.107800
     26 C45        -16.9900    26.7970   -15.9530 cd         1 9VI      -0.104300
     27 C46        -17.7660    25.7580   -16.6770 c6         1 9VI      -0.004100
     28 C47        -19.1370    26.3380   -17.0440 c6         1 9VI      -0.040200
     29 C48        -19.0730    27.7590   -17.5360 c2         1 9VI      -0.207200
     30 C49        -18.1580    28.6270   -17.0930 ce         1 9VI      -0.128200
     31 C50        -15.9030    30.1600   -15.0390 c3         1 9VI       0.292700
     32 C54        -17.9730    26.6650   -10.0050 ca         1 9VI       0.003800
     33 F32        -16.5460    20.6660   -15.4940 f          1 9VI      -0.170000
     34 F35        -20.2580    20.8980   -12.6740 f          1 9VI      -0.170000
     35 F51        -16.4050    30.5720   -13.8620 f          1 9VI      -0.112000
     36 F52        -16.4280    30.9460   -15.9830 f          1 9VI      -0.112000
     37 F53        -14.5900    30.4070   -14.9900 f          1 9VI      -0.112000
     38 N02        -17.3810    27.6670   -10.6940 na         1 9VI       0.113600
     39 N03        -18.2880    28.4460   -11.2900 nd         1 9VI      -0.545100
     40 N05        -20.6280    28.5000   -11.5650 nu         1 9VI      -0.841300
     41 N16        -16.0630    25.4050    -9.0750 n          1 9VI      -0.253500
     42 N23        -12.0870    24.7350    -8.7580 nb         1 9VI      -0.128000
     43 N25        -14.0940    24.3660    -9.8110 nd         1 9VI      -0.702700
     44 N37        -15.5180    24.4370   -12.3090 ns         1 9VI      -0.507900
     45 N41        -15.9870    26.6510   -15.0720 na         1 9VI       0.164800
     46 N42        -15.5040    27.8120   -14.6500 nd         1 9VI      -0.498800
     47 O08        -19.9060    28.2070   -13.9430 o          1 9VI      -0.525000
     48 O09        -22.1350    29.2380   -13.3880 o          1 9VI      -0.525000
     49 O39        -17.4290    25.3620   -13.1080 o          1 9VI      -0.549100
     50 S06        -20.7180    29.0780   -13.1150 s6         1 9VI       1.232100
     51 CL12       -21.9380    26.0500    -9.8610 cl         1 9VI      -0.169000
     52 H1         -20.4100    24.1360    -8.4100 ha         1 9VI       0.138000
     53 H2         -13.7390    27.1040    -6.1770 ha         1 9VI       0.144000
     54 H3         -11.2820    26.6300    -6.1020 ha         1 9VI       0.135000
     55 H4         -10.3210    25.1010    -7.7960 h4         1 9VI       0.028100
     56 H5         -16.3340    22.0870   -10.0100 hc         1 9VI       0.073200
     57 H6         -14.9320    22.0950   -11.0750 hc         1 9VI       0.073200
     58 H7         -15.9010    28.8310   -11.5100 h1         1 9VI       0.063367
     59 H8         -15.5620    28.3070    -9.8590 h1         1 9VI       0.063367
     60 H9         -15.4040    27.1680   -11.2170 h1         1 9VI       0.063367
     61 H10        -20.5230    31.3180   -12.3860 h1         1 9VI       0.107367
     62 H11        -18.9370    30.5960   -12.7730 h1         1 9VI       0.107367
     63 H12        -20.0320    31.1030   -14.0880 h1         1 9VI       0.107367
     64 H13        -17.9830    23.8980    -8.0920 ha         1 9VI       0.125000
     65 H14        -17.1260    24.2050   -11.0760 h1         1 9VI       0.111700
     66 H15        -15.1970    21.5980   -13.4920 ha         1 9VI       0.135000
     67 H16        -19.0560    20.3690   -14.9140 ha         1 9VI       0.153000
     68 H17        -18.6250    21.8330   -10.9030 ha         1 9VI       0.135000
     69 H18        -15.6130    24.6170   -15.2140 h1         1 9VI       0.087200
     70 H19        -14.4170    25.5470   -14.3240 h1         1 9VI       0.087200
     71 H20        -17.8920    24.8520   -16.0830 hc         1 9VI       0.054700
     72 H21        -17.2210    25.4700   -17.5830 hc         1 9VI       0.054700
     73 H22        -19.7850    26.3130   -16.1610 hc         1 9VI       0.064200
     74 H23        -19.6120    25.6980   -17.7880 hc         1 9VI       0.064200
     75 H24        -19.8380    28.0900   -18.2280 ha         1 9VI       0.178000
     76 H25        -18.1610    29.6550   -17.4260 ha         1 9VI       0.189000
     77 H26        -21.3680    28.7910   -10.9370 hn         1 9VI       0.519000
     78 H27        -14.5360    24.2690   -12.4790 hn         1 9VI       0.333500
     79 C01        -15.9790    28.0000   -10.8160 c3         1 9VI       0.078900
     80 O18        -16.1140    26.7780    -7.2690 o          1 9VI      -0.498000
     81 C38        -16.2510    25.0850   -13.2310 c          1 9VI       0.580100
@<TRIPOS>BOND
     1     1    11 1   
     2     1    13 ar  
     3     1    32 ar  
     4     2    13 ar  
     5     2    14 ar  
     6     2    52 1   
     7     3    14 ar  
     8     3    32 ar  
     9     3    41 1   
    10     4    15 1   
    11     4    41 1   
    12     4    80 2   
    13     5     6 ar  
    14     5    15 ar  
    15     5    53 1   
    16     6     7 ar  
    17     6    54 1   
    18     7    42 ar  
    19     7    55 1   
    20     8    15 ar  
    21     8    42 ar  
    22     8    43 1   
    23     9    16 1   
    24     9    41 1   
    25     9    43 2   
    26    10    16 1   
    27    10    17 1   
    28    10    56 1   
    29    10    57 1   
    30    11    39 2   
    31    11    40 1   
    32    12    50 1   
    33    12    61 1   
    34    12    62 1   
    35    12    63 1   
    36    13    51 1   
    37    14    64 1   
    38    16    44 1   
    39    16    65 1   
    40    17    18 ar  
    41    17    22 ar  
    42    18    19 ar  
    43    18    66 1   
    44    19    20 ar  
    45    19    33 1   
    46    20    21 ar  
    47    20    67 1   
    48    21    22 ar  
    49    21    34 1   
    50    22    68 1   
    51    23    45 1   
    52    23    69 1   
    53    23    70 1   
    54    23    81 1   
    55    24    25 1   
    56    24    31 1   
    57    24    46 2   
    58    25    26 2   
    59    25    30 1   
    60    26    27 1   
    61    26    45 1   
    62    27    28 1   
    63    27    71 1   
    64    27    72 1   
    65    28    29 1   
    66    28    73 1   
    67    28    74 1   
    68    29    30 2   
    69    29    75 1   
    70    30    76 1   
    71    31    35 1   
    72    31    36 1   
    73    31    37 1   
    74    32    38 1   
    75    38    39 1   
    76    38    79 1   
    77    40    50 1   
    78    40    77 1   
    79    44    78 1   
    80    44    81 1   
    81    45    46 1   
    82    47    50 2   
    83    48    50 2   
    84    49    81 2   
    85    58    79 1   
    86    59    79 1   
    87    60    79 1   
@<TRIPOS>SUBSTRUCTURE
     1 9VI         1 TEMP              0 ****  ****    0 ROOT
