@<TRIPOS>MOLECULE
9VK
   59    61     1     0     0
SMALL
No Charge or Current Charge


@<TRIPOS>ATOM
      1 O4           2.2160     0.0180    -2.9470 o          1 9VK      -0.718500
      2 C3           2.8530     0.3530    -1.9560 c          1 9VK       0.710000
      3 O5           3.9870     0.8140    -2.0340 o          1 9VK      -0.718500
      4 C1           2.1660     0.1750    -0.5470 c3         1 9VK       0.082600
      5 O2           3.0860     0.3250     0.5840 os         1 9VK      -0.454000
      6 C6           3.6930    -0.8560     1.1730 c3         1 9VK       0.205000
      7 C9           4.4850    -1.6480     0.1000 c3         1 9VK      -0.102433
      8 C8           4.6520    -0.3120     2.2570 c3         1 9VK      -0.102433
      9 C7           2.5870    -1.7230     1.8260 c3         1 9VK      -0.102433
     10 C22          1.0220     1.1580    -0.3260 cc         1 9VK      -0.054300
     11 C23         -0.3330     0.7210    -0.1080 cc         1 9VK       0.005200
     12 C26         -0.6820    -0.6990    -0.0250 ce         1 9VK       0.002600
     13 C25         -0.8830    -1.4280    -1.3580 c6         1 9VK      -0.054200
     14 C27         -0.7990    -1.3480     1.1570 c2         1 9VK      -0.251200
     15 C28         -1.0680    -2.8440     1.2990 c6         1 9VK      -0.019200
     16 C29         -1.5280    -3.5370    -0.0210 c6         1 9VK      -0.049000
     17 C54         -3.0620    -3.3360    -0.2370 c3         1 9VK      -0.081600
     18 C53         -1.2880    -5.0740     0.0790 c3         1 9VK      -0.081600
     19 C24         -0.7070    -2.9600    -1.2150 c6         1 9VK      -0.059400
     20 C21         -1.2050     1.7810     0.0900 cd         1 9VK      -0.307500
     21 S43         -0.3820     3.3420    -0.0350 ss         1 9VK       0.106000
     22 C20          1.1520     2.5300    -0.3170 cd         1 9VK      -0.132300
     23 C34          2.4000     3.3550    -0.5150 c3         1 9VK      -0.022800
     24 C35         -2.6700     1.7460     0.3120 ca         1 9VK       0.470500
     25 C39         -3.3580     2.8710     0.8210 ca         1 9VK      -0.170000
     26 C38         -4.7530     2.8280     0.9740 ca         1 9VK      -0.077000
     27 C37         -5.4190     1.6550     0.5960 ca         1 9VK      -0.193000
     28 C40         -4.6730     0.5850     0.0790 ca         1 9VK       0.339900
     29 N36         -3.3320     0.6290    -0.0690 nb         1 9VK      -0.657000
     30 H2           1.7540    -0.8390    -0.5620 h1         1 9VK       0.035700
     31 H3           5.2340    -1.0120    -0.3850 hc         1 9VK       0.033256
     32 H4           5.0140    -2.4890     0.5640 hc         1 9VK       0.033256
     33 H5           3.8230    -2.0610    -0.6690 hc         1 9VK       0.033256
     34 H6           4.1030     0.2680     3.0090 hc         1 9VK       0.033256
     35 H7           5.1650    -1.1330     2.7710 hc         1 9VK       0.033256
     36 H8           5.4140     0.3390     1.8130 hc         1 9VK       0.033256
     37 H9           1.9900    -2.2470     1.0730 hc         1 9VK       0.033256
     38 H10          3.0320    -2.4870     2.4750 hc         1 9VK       0.033256
     39 H11          1.9190    -1.1080     2.4390 hc         1 9VK       0.033256
     40 H12         -1.8820    -1.1980    -1.7490 hc         1 9VK       0.084200
     41 H13         -0.1780    -1.0470    -2.1080 hc         1 9VK       0.084200
     42 H14         -0.6490    -0.8030     2.0890 ha         1 9VK       0.167000
     43 H15         -0.1420    -3.3150     1.6550 hc         1 9VK       0.031700
     44 H16         -1.8070    -3.0120     2.0940 hc         1 9VK       0.031700
     45 H17         -3.6440    -3.8260     0.5530 hc         1 9VK       0.027700
     46 H18         -3.3420    -2.2770    -0.2260 hc         1 9VK       0.027700
     47 H19         -3.3900    -3.7560    -1.1960 hc         1 9VK       0.027700
     48 H20         -1.8280    -5.5100     0.9280 hc         1 9VK       0.027700
     49 H21         -1.6220    -5.5930    -0.8280 hc         1 9VK       0.027700
     50 H22         -0.2240    -5.3060     0.2140 hc         1 9VK       0.027700
     51 H23         -0.9970    -3.4520    -2.1540 hc         1 9VK       0.037700
     52 H24          0.3590    -3.1830    -1.0680 hc         1 9VK       0.037700
     53 H25          2.7020     3.3640    -1.5680 hc         1 9VK       0.053700
     54 H26          2.2420     4.3960    -0.2070 hc         1 9VK       0.053700
     55 H27          3.2370     2.9640     0.0740 hc         1 9VK       0.053700
     56 H28         -2.8220     3.7680     1.1120 ha         1 9VK       0.126000
     57 H29         -5.3000     3.6790     1.3740 ha         1 9VK       0.105000
     58 H30         -6.4980     1.5700     0.6940 ha         1 9VK       0.110000
     59 H31         -5.1640    -0.3370    -0.2300 h4         1 9VK       0.009100
@<TRIPOS>BOND
     1     1     2 1   
     2     2     3 1   
     3     2     4 1   
     4     4     5 1   
     5     4    10 1   
     6     4    30 1   
     7     5     6 1   
     8     6     7 1   
     9     6     8 1   
    10     6     9 1   
    11     7    31 1   
    12     7    32 1   
    13     7    33 1   
    14     8    34 1   
    15     8    35 1   
    16     8    36 1   
    17     9    37 1   
    18     9    38 1   
    19     9    39 1   
    20    10    11 1   
    21    10    22 2   
    22    11    12 1   
    23    11    20 2   
    24    12    13 1   
    25    12    14 2   
    26    13    19 1   
    27    13    40 1   
    28    13    41 1   
    29    14    15 1   
    30    14    42 1   
    31    15    16 1   
    32    15    43 1   
    33    15    44 1   
    34    16    17 1   
    35    16    18 1   
    36    16    19 1   
    37    17    45 1   
    38    17    46 1   
    39    17    47 1   
    40    18    48 1   
    41    18    49 1   
    42    18    50 1   
    43    19    51 1   
    44    19    52 1   
    45    20    21 1   
    46    20    24 1   
    47    21    22 1   
    48    22    23 1   
    49    23    53 1   
    50    23    54 1   
    51    23    55 1   
    52    24    25 ar  
    53    24    29 ar  
    54    25    26 ar  
    55    25    56 1   
    56    26    27 ar  
    57    26    57 1   
    58    27    28 ar  
    59    27    58 1   
    60    28    29 ar  
    61    28    59 1   
@<TRIPOS>SUBSTRUCTURE
     1 9VK         1 TEMP              0 ****  ****    0 ROOT
