@<TRIPOS>MOLECULE
9VK
   59    61     1     0     0
SMALL
abcg2


@<TRIPOS>ATOM
      1 O4           2.0830    -0.0710    -2.8180 o          1 9VK      -0.718500
      2 C3           2.8350     0.2920    -1.8870 c          1 9VK       0.710000
      3 O5           3.9780     0.7590    -1.9890 o          1 9VK      -0.718500
      4 C1           2.2150     0.1380    -0.4730 c3         1 9VK       0.082600
      5 O2           3.1100     0.4030     0.5800 os         1 9VK      -0.454000
      6 C6           3.7590    -0.6910     1.2160 c3         1 9VK       0.205000
      7 C9           4.4580    -1.6230     0.2270 c3         1 9VK      -0.102433
      8 C8           4.7990    -0.0400     2.1210 c3         1 9VK      -0.102433
      9 C7           2.7650    -1.4850     2.0690 c3         1 9VK      -0.102433
     10 C22          1.0380     1.0710    -0.3300 cc         1 9VK      -0.054300
     11 C23         -0.3110     0.6280    -0.1360 cc         1 9VK       0.005200
     12 C26         -0.6770    -0.8040    -0.0830 ce         1 9VK       0.002600
     13 C25         -0.8400    -1.5120    -1.3970 c6         1 9VK      -0.054200
     14 C27         -0.8090    -1.4350     1.0830 c2         1 9VK      -0.251200
     15 C28         -1.1340    -2.8920     1.2150 c6         1 9VK      -0.019200
     16 C29         -1.6620    -3.5230    -0.0790 c6         1 9VK      -0.049000
     17 C54         -3.1200    -3.1130    -0.2960 c3         1 9VK      -0.081600
     18 C53         -1.5770    -5.0440     0.0200 c3         1 9VK      -0.081600
     19 C24         -0.7960    -3.0270    -1.2410 c6         1 9VK      -0.059400
     20 C21         -1.1930     1.6670     0.0140 cd         1 9VK      -0.307500
     21 S43         -0.3720     3.1830    -0.0720 ss         1 9VK       0.106000
     22 C20          1.1560     2.4340    -0.3150 cd         1 9VK      -0.132300
     23 C34          2.3680     3.2830    -0.5180 c3         1 9VK      -0.022800
     24 C35         -2.6420     1.6330     0.2190 ca         1 9VK       0.470500
     25 C39         -3.2800     2.6080     0.9940 ca         1 9VK      -0.170000
     26 C38         -4.6540     2.5530     1.1460 ca         1 9VK      -0.077000
     27 C37         -5.3570     1.5240     0.5370 ca         1 9VK      -0.193000
     28 C40         -4.6360     0.5990    -0.2040 ca         1 9VK       0.339900
     29 N36         -3.3230     0.6500    -0.3690 nb         1 9VK      -0.657000
     30 H2           1.8250    -0.8850    -0.4090 h1         1 9VK       0.035700
     31 H3           5.1350    -1.0690    -0.4230 hc         1 9VK       0.033256
     32 H4           5.0380    -2.3700     0.7710 hc         1 9VK       0.033256
     33 H5           3.7510    -2.1660    -0.4040 hc         1 9VK       0.033256
     34 H6           4.3280     0.6350     2.8380 hc         1 9VK       0.033256
     35 H7           5.3480    -0.7950     2.6830 hc         1 9VK       0.033256
     36 H8           5.5180     0.5350     1.5350 hc         1 9VK       0.033256
     37 H9           1.9850    -1.9540     1.4660 hc         1 9VK       0.033256
     38 H10          3.2810    -2.2790     2.6140 hc         1 9VK       0.033256
     39 H11          2.2770    -0.8400     2.8010 hc         1 9VK       0.033256
     40 H12         -1.7870    -1.1880    -1.8410 hc         1 9VK       0.084200
     41 H13         -0.0550    -1.1810    -2.0830 hc         1 9VK       0.084200
     42 H14         -0.6500    -0.8800     2.0030 ha         1 9VK       0.167000
     43 H15         -0.2330    -3.4250     1.5440 hc         1 9VK       0.031700
     44 H16         -1.8630    -3.0340     2.0210 hc         1 9VK       0.031700
     45 H17         -3.7560    -3.5170     0.4960 hc         1 9VK       0.027700
     46 H18         -3.2380    -2.0290    -0.2980 hc         1 9VK       0.027700
     47 H19         -3.4970    -3.4940    -1.2490 hc         1 9VK       0.027700
     48 H20         -2.1580    -5.4170     0.8670 hc         1 9VK       0.027700
     49 H21         -1.9660    -5.5200    -0.8830 hc         1 9VK       0.027700
     50 H22         -0.5450    -5.3780     0.1520 hc         1 9VK       0.027700
     51 H23         -1.1110    -3.5060    -2.1730 hc         1 9VK       0.037700
     52 H24          0.2410    -3.3400    -1.0670 hc         1 9VK       0.037700
     53 H25          2.5300     3.4890    -1.5780 hc         1 9VK       0.053700
     54 H26          2.2750     4.2420    -0.0090 hc         1 9VK       0.053700
     55 H27          3.2550     2.7790    -0.1450 hc         1 9VK       0.053700
     56 H28         -2.7080     3.3870     1.4800 ha         1 9VK       0.126000
     57 H29         -5.1670     3.2990     1.7400 ha         1 9VK       0.105000
     58 H30         -6.4300     1.4370     0.6310 ha         1 9VK       0.110000
     59 H31         -5.1490    -0.2210    -0.6970 h4         1 9VK       0.009100
@<TRIPOS>BOND
     1     1     2 1   
     2     2     3 1   
     3     2     4 1   
     4     4     5 1   
     5     4    10 1   
     6     4    30 1   
     7     5     6 1   
     8     6     7 1   
     9     6     8 1   
    10     6     9 1   
    11     7    31 1   
    12     7    32 1   
    13     7    33 1   
    14     8    34 1   
    15     8    35 1   
    16     8    36 1   
    17     9    37 1   
    18     9    38 1   
    19     9    39 1   
    20    10    11 1   
    21    10    22 2   
    22    11    12 1   
    23    11    20 2   
    24    12    13 1   
    25    12    14 2   
    26    13    19 1   
    27    13    40 1   
    28    13    41 1   
    29    14    15 1   
    30    14    42 1   
    31    15    16 1   
    32    15    43 1   
    33    15    44 1   
    34    16    17 1   
    35    16    18 1   
    36    16    19 1   
    37    17    45 1   
    38    17    46 1   
    39    17    47 1   
    40    18    48 1   
    41    18    49 1   
    42    18    50 1   
    43    19    51 1   
    44    19    52 1   
    45    20    21 1   
    46    20    24 1   
    47    21    22 1   
    48    22    23 1   
    49    23    53 1   
    50    23    54 1   
    51    23    55 1   
    52    24    25 ar  
    53    24    29 ar  
    54    25    26 ar  
    55    25    56 1   
    56    26    27 ar  
    57    26    57 1   
    58    27    28 ar  
    59    27    58 1   
    60    28    29 ar  
    61    28    59 1   
@<TRIPOS>SUBSTRUCTURE
     1 9VK         1 TEMP              0 ****  ****    0 ROOT
