@<TRIPOS>MOLECULE
9VL
   39    39     1     0     0
SMALL
bcc


@<TRIPOS>ATOM
      1 C15        197.4800    37.1650    74.9250 ca         1 9VL      -0.061300
      2 C20        199.0650    38.9910    75.1120 ca         1 9VL      -0.121000
      3 C21        198.6300    37.7250    75.4750 ca         1 9VL      -0.107000
      4 C          192.9390    36.2220    82.6740 c          1 9VL       0.897600
      5 CA         191.8530    35.3390    82.0150 c3         1 9VL       0.015500
      6 CB         191.5350    35.8610    80.6140 c3         1 9VL      -0.046400
      7 CG         192.7180    35.8880    79.6540 c3         1 9VL      -0.074400
      8 CD         192.3100    36.3490    78.2600 c3         1 9VL      -0.094400
      9 CE         193.4610    36.4300    77.2700 c3         1 9VL       0.114000
     10 C11        195.1410    34.8320    76.3480 c          1 9VL       0.756100
     11 C14        197.0480    35.7920    75.3440 c3         1 9VL       0.203700
     12 C16        196.7720    37.9260    73.9950 ca         1 9VL       0.006100
     13 C18        197.1890    39.1960    73.6240 ca         1 9VL      -0.112000
     14 C19        198.3400    39.7270    74.1890 ca         1 9VL      -0.125000
     15 N          190.6060    35.2670    82.7760 n8         1 9VL      -0.891800
     16 NZ         194.0060    35.1080    77.0120 ns         1 9VL      -0.550900
     17 O12        195.5050    33.7170    76.0280 o          1 9VL      -0.616000
     18 O13        195.8450    35.9410    76.0920 os         1 9VL      -0.421900
     19 BR         195.2080    37.2340    73.1860 br         1 9VL      -0.097100
     20 H20        199.9640    39.4000    75.5540 ha         1 9VL       0.134000
     21 H21        199.1920    37.1510    76.2010 ha         1 9VL       0.140000
     22 HA         192.2400    34.3190    81.9170 h1         1 9VL       0.038700
     23 HB2        191.1140    36.8700    80.6990 hc         1 9VL       0.022200
     24 HB3        190.7430    35.2360    80.1890 hc         1 9VL       0.022200
     25 HG2        193.1660    34.8910    79.6060 hc         1 9VL       0.056200
     26 HG3        193.4990    36.5550    80.0290 hc         1 9VL       0.056200
     27 HD2        191.8630    37.3450    78.3240 hc         1 9VL       0.036200
     28 HD3        191.5280    35.6940    77.8600 hc         1 9VL       0.036200
     29 HE2        194.2420    37.0750    77.6770 h1         1 9VL       0.043700
     30 HE3        193.1130    36.8920    76.3410 h1         1 9VL       0.043700
     31 H12        196.8900    35.1480    74.4760 h1         1 9VL       0.059200
     32 H13        197.8230    35.3310    75.9600 h1         1 9VL       0.059200
     33 H18        196.6270    39.7730    72.9020 ha         1 9VL       0.143000
     34 H19        198.6660    40.7180    73.8990 ha         1 9VL       0.130000
     35 H          190.7900    34.8070    83.6600 hn         1 9VL       0.326300
     36 H2         190.3550    36.2170    83.0300 hn         1 9VL       0.326300
     37 HZ         193.3950    34.3190    77.1570 hn         1 9VL       0.332500
     38 O          192.5490    37.3240    83.1210 o          1 9VL      -0.840300
     39 OXT        194.1070    35.7840    82.6860 o          1 9VL      -0.840300
@<TRIPOS>BOND
     1     1     3 ar  
     2     1    11 1   
     3     1    12 ar  
     4     2     3 ar  
     5     2    14 ar  
     6     2    20 1   
     7     3    21 1   
     8     4     5 1   
     9     4    38 1   
    10     4    39 1   
    11     5     6 1   
    12     5    15 1   
    13     5    22 1   
    14     6     7 1   
    15     6    23 1   
    16     6    24 1   
    17     7     8 1   
    18     7    25 1   
    19     7    26 1   
    20     8     9 1   
    21     8    27 1   
    22     8    28 1   
    23     9    16 1   
    24     9    29 1   
    25     9    30 1   
    26    10    16 1   
    27    10    17 2   
    28    10    18 1   
    29    11    18 1   
    30    11    31 1   
    31    11    32 1   
    32    12    13 ar  
    33    12    19 1   
    34    13    14 ar  
    35    13    33 1   
    36    14    34 1   
    37    15    35 1   
    38    15    36 1   
    39    16    37 1   
@<TRIPOS>SUBSTRUCTURE
     1 9VL         1 TEMP              0 ****  ****    0 ROOT
