@<TRIPOS>MOLECULE
9VN
   59    61     1     0     0
SMALL
No Charge or Current Charge


@<TRIPOS>ATOM
      1 C6          -3.9370    -0.1870    -1.2180 c3         1 9VN       0.201000
      2 C7          -4.7100    -1.1080    -0.2370 c3         1 9VN      -0.101767
      3 C8          -3.0120    -0.9880    -2.1690 c3         1 9VN      -0.101767
      4 C9          -4.9240     0.6770    -2.0370 c3         1 9VN      -0.101767
      5 C3          -2.6610     0.4010     1.9850 c          1 9VN       0.716000
      6 C1          -2.1590     0.2740     0.4990 c3         1 9VN       0.077600
      7 O2          -3.1340     0.7660    -0.4760 os         1 9VN      -0.446000
      8 C22         -0.8960     1.0650     0.2450 cc         1 9VN      -0.050300
      9 C23          0.4210     0.5490     0.0710 cc         1 9VN       0.000200
     10 C27          0.6470    -0.8940     0.1620 ce         1 9VN      -0.076400
     11 C26          0.9440    -1.6050    -1.1650 c6         1 9VN      -0.034200
     12 C28          0.5920    -1.5730     1.3320 c2         1 9VN      -0.195200
     13 C29          0.8940    -3.0610     1.4740 c6         1 9VN      -0.035200
     14 C30          0.8400    -3.8390     0.1270 c6         1 9VN      -0.049000
     15 C51          1.5380    -5.2230     0.2850 c3         1 9VN      -0.081100
     16 C25          1.5770    -3.0040    -0.9630 c6         1 9VN      -0.061400
     17 C24         -0.6420    -4.1230    -0.2750 c3         1 9VN      -0.081100
     18 C21          1.4130     1.5240    -0.2010 cd         1 9VN      -0.213000
     19 S35          0.9580     3.2940    -0.3060 ss         1 9VN       0.121000
     20 C20         -0.7350     3.0430     0.0230 cd         1 9VN      -0.142300
     21 C36         -1.7720     4.1290     0.0690 c3         1 9VN      -0.023800
     22 C38          2.8770     1.2560    -0.2930 ca         1 9VN       0.071000
     23 C42          3.7230     2.1310    -1.0100 ca         1 9VN      -0.162500
     24 C41          5.1000     1.8710    -1.0950 ca         1 9VN       0.321400
     25 N52          5.6880     0.8090    -0.5070 nb         1 9VN      -0.690000
     26 C40          4.8940    -0.0280     0.1940 ca         1 9VN       0.321400
     27 C39          3.5100     0.1570     0.3270 ca         1 9VN      -0.162500
     28 H1          -4.0340    -1.7680     0.3190 hc         1 9VN       0.032922
     29 H2          -5.2880    -0.5170     0.4830 hc         1 9VN       0.032922
     30 H3          -5.4110    -1.7460    -0.7870 hc         1 9VN       0.032922
     31 H4          -3.6080    -1.5550    -2.8940 hc         1 9VN       0.032922
     32 H5          -2.3470    -0.3170    -2.7260 hc         1 9VN       0.032922
     33 H6          -2.3970    -1.7080    -1.6210 hc         1 9VN       0.032922
     34 H7          -5.5540     1.2830    -1.3760 hc         1 9VN       0.032922
     35 H8          -4.3840     1.3530    -2.7110 hc         1 9VN       0.032922
     36 H9          -5.5810     0.0440    -2.6460 hc         1 9VN       0.032922
     37 H10         -1.9410    -0.7860     0.3320 h1         1 9VN       0.035700
     38 H12          0.0130    -1.6980    -1.7390 hc         1 9VN       0.045200
     39 H13          1.6140    -0.9910    -1.7820 hc         1 9VN       0.045200
     40 H14          0.3730    -1.0430     2.2610 ha         1 9VN       0.234000
     41 H15          1.8970    -3.1570     1.9130 hc         1 9VN       0.044200
     42 H16          0.2050    -3.5110     2.2030 hc         1 9VN       0.044200
     43 H17          1.0640    -5.8250     1.0690 hc         1 9VN       0.029533
     44 H18          1.4980    -5.8010    -0.6470 hc         1 9VN       0.029533
     45 H19          2.5960    -5.1090     0.5540 hc         1 9VN       0.029533
     46 H20          1.5860    -3.5430    -1.9200 hc         1 9VN       0.031200
     47 H21          2.6300    -2.8770    -0.6740 hc         1 9VN       0.031200
     48 H22         -1.2430    -3.2070    -0.2880 hc         1 9VN       0.029533
     49 H23         -0.7090    -4.5800    -1.2700 hc         1 9VN       0.029533
     50 H24         -1.1250    -4.8060     0.4350 hc         1 9VN       0.029533
     51 H25         -1.5000     4.9050     0.7940 hc         1 9VN       0.052033
     52 H26         -1.8840     4.6060    -0.9120 hc         1 9VN       0.052033
     53 H27         -2.7480     3.7240     0.3590 hc         1 9VN       0.052033
     54 H28          3.3350     2.9970    -1.5350 ha         1 9VN       0.131500
     55 H29          5.7540     2.5350    -1.6580 h4         1 9VN       0.005600
     56 H30          5.3880    -0.8700     0.6770 h4         1 9VN       0.005600
     57 H31          2.9690    -0.5410     0.9490 ha         1 9VN       0.131500
     58 O4          -3.6380     1.0980     2.2410 o          1 9VN      -0.717000
     59 O5          -2.0460    -0.2020     2.8550 o          1 9VN      -0.717000
@<TRIPOS>BOND
     1     1     2 1   
     2     1     3 1   
     3     1     4 1   
     4     1     7 1   
     5     2    28 1   
     6     2    29 1   
     7     2    30 1   
     8     3    31 1   
     9     3    32 1   
    10     3    33 1   
    11     4    34 1   
    12     4    35 1   
    13     4    36 1   
    14     5     6 1   
    15     5    58 1   
    16     5    59 1   
    17     6     7 1   
    18     6     8 1   
    19     6    37 1   
    20     8     9 1   
    21     8    20 2   
    22     9    10 1   
    23     9    18 2   
    24    10    11 1   
    25    10    12 2   
    26    11    16 1   
    27    11    38 1   
    28    11    39 1   
    29    12    13 1   
    30    12    40 1   
    31    13    14 1   
    32    13    41 1   
    33    13    42 1   
    34    14    15 1   
    35    14    16 1   
    36    14    17 1   
    37    15    43 1   
    38    15    44 1   
    39    15    45 1   
    40    16    46 1   
    41    16    47 1   
    42    17    48 1   
    43    17    49 1   
    44    17    50 1   
    45    18    19 1   
    46    18    22 1   
    47    19    20 1   
    48    20    21 1   
    49    21    51 1   
    50    21    52 1   
    51    21    53 1   
    52    22    23 ar  
    53    22    27 ar  
    54    23    24 ar  
    55    23    54 1   
    56    24    25 ar  
    57    24    55 1   
    58    25    26 ar  
    59    26    27 ar  
    60    26    56 1   
    61    27    57 1   
@<TRIPOS>SUBSTRUCTURE
     1 9VN         1 TEMP              0 ****  ****    0 ROOT
