@<TRIPOS>MOLECULE
9VN
   59    61     1     0     0
SMALL
abcg2


@<TRIPOS>ATOM
      1 C6          -3.8140    -0.0730    -1.1510 c3         1 9VN       0.201000
      2 C7          -4.5710    -1.0260    -0.2240 c3         1 9VN      -0.101767
      3 C8          -2.8800    -0.8570    -2.0740 c3         1 9VN      -0.101767
      4 C9          -4.8120     0.7180    -1.9890 c3         1 9VN      -0.101767
      5 C3          -2.6510     0.7460     1.9920 c          1 9VN       0.716000
      6 C1          -2.1640     0.4990     0.5380 c3         1 9VN       0.077600
      7 O2          -3.0920     0.9160    -0.4320 os         1 9VN      -0.446000
      8 C22         -0.8580     1.2050     0.2850 cc         1 9VN      -0.050300
      9 C23          0.4090     0.5520     0.1180 cc         1 9VN       0.000200
     10 C27          0.6190    -0.9120     0.1710 ce         1 9VN      -0.076400
     11 C26          1.1230    -1.5860    -1.0790 c6         1 9VN      -0.034200
     12 C28          0.3620    -1.6080     1.2810 c2         1 9VN      -0.195200
     13 C29          0.5980    -3.0790     1.4270 c6         1 9VN      -0.035200
     14 C30          0.7970    -3.8180     0.1000 c6         1 9VN      -0.049000
     15 C51          1.4560    -5.1700     0.3570 c3         1 9VN      -0.081100
     16 C25          1.7010    -2.9650    -0.7960 c6         1 9VN      -0.061400
     17 C24         -0.5600    -4.0440    -0.5690 c3         1 9VN      -0.081100
     18 C21          1.4220     1.4410    -0.1600 cd         1 9VN      -0.213000
     19 S35          0.8270     3.0580    -0.2170 ss         1 9VN       0.121000
     20 C20         -0.7780     2.5630     0.1370 cd         1 9VN      -0.142300
     21 C36         -1.8570     3.5910     0.2210 c3         1 9VN      -0.023800
     22 C38          2.8490     1.2020    -0.3520 ca         1 9VN       0.071000
     23 C42          3.6030     1.9700    -1.2430 ca         1 9VN      -0.162500
     24 C41          4.9560     1.7140    -1.3860 ca         1 9VN       0.321400
     25 N52          5.6040     0.7640    -0.7200 nb         1 9VN      -0.690000
     26 C40          4.8900     0.0360     0.1330 ca         1 9VN       0.321400
     27 C39          3.5350     0.2120     0.3560 ca         1 9VN      -0.162500
     28 H1          -3.8990    -1.6410     0.3770 hc         1 9VN       0.032922
     29 H2          -5.2170    -0.4720     0.4560 hc         1 9VN       0.032922
     30 H3          -5.1890    -1.7070    -0.8110 hc         1 9VN       0.032922
     31 H4          -3.4450    -1.5460    -2.7050 hc         1 9VN       0.032922
     32 H5          -2.3200    -0.1820    -2.7240 hc         1 9VN       0.032922
     33 H6          -2.1580    -1.4550    -1.5140 hc         1 9VN       0.032922
     34 H7          -5.4850     1.2940    -1.3510 hc         1 9VN       0.032922
     35 H8          -4.2990     1.4120    -2.6580 hc         1 9VN       0.032922
     36 H9          -5.4170     0.0480    -2.6010 hc         1 9VN       0.032922
     37 H10         -1.9640    -0.5770     0.4640 h1         1 9VN       0.035700
     38 H12          0.2970    -1.6550    -1.7980 hc         1 9VN       0.045200
     39 H13          1.8750    -0.9650    -1.5680 hc         1 9VN       0.045200
     40 H14         -0.0220    -1.0820     2.1490 ha         1 9VN       0.234000
     41 H15          1.4780    -3.2180     2.0680 hc         1 9VN       0.044200
     42 H16         -0.2310    -3.5330     1.9830 hc         1 9VN       0.044200
     43 H17          0.8590    -5.7740     1.0450 hc         1 9VN       0.029533
     44 H18          1.5660    -5.7360    -0.5710 hc         1 9VN       0.029533
     45 H19          2.4510    -5.0520     0.7930 hc         1 9VN       0.029533
     46 H20          1.8890    -3.4880    -1.7390 hc         1 9VN       0.031200
     47 H21          2.6760    -2.8500    -0.3080 hc         1 9VN       0.031200
     48 H22         -1.1230    -3.1150    -0.6710 hc         1 9VN       0.029533
     49 H23         -0.4440    -4.4750    -1.5670 hc         1 9VN       0.029533
     50 H24         -1.1710    -4.7300     0.0220 hc         1 9VN       0.029533
     51 H25         -1.5120     4.4870     0.7390 hc         1 9VN       0.052033
     52 H26         -2.1950     3.8940    -0.7710 hc         1 9VN       0.052033
     53 H27         -2.7210     3.2080     0.7570 hc         1 9VN       0.052033
     54 H28          3.1460     2.7510    -1.8380 ha         1 9VN       0.131500
     55 H29          5.5420     2.3040    -2.0820 h4         1 9VN       0.005600
     56 H30          5.4260    -0.7310     0.6810 h4         1 9VN       0.005600
     57 H31          3.0260    -0.4070     1.0810 ha         1 9VN       0.131500
     58 O4          -3.7800     1.2320     2.1590 o          1 9VN      -0.717000
     59 O5          -1.8350     0.4130     2.8770 o          1 9VN      -0.717000
@<TRIPOS>BOND
     1     1     2 1   
     2     1     3 1   
     3     1     4 1   
     4     1     7 1   
     5     2    28 1   
     6     2    29 1   
     7     2    30 1   
     8     3    31 1   
     9     3    32 1   
    10     3    33 1   
    11     4    34 1   
    12     4    35 1   
    13     4    36 1   
    14     5     6 1   
    15     5    58 1   
    16     5    59 1   
    17     6     7 1   
    18     6     8 1   
    19     6    37 1   
    20     8     9 1   
    21     8    20 2   
    22     9    10 1   
    23     9    18 2   
    24    10    11 1   
    25    10    12 2   
    26    11    16 1   
    27    11    38 1   
    28    11    39 1   
    29    12    13 1   
    30    12    40 1   
    31    13    14 1   
    32    13    41 1   
    33    13    42 1   
    34    14    15 1   
    35    14    16 1   
    36    14    17 1   
    37    15    43 1   
    38    15    44 1   
    39    15    45 1   
    40    16    46 1   
    41    16    47 1   
    42    17    48 1   
    43    17    49 1   
    44    17    50 1   
    45    18    19 1   
    46    18    22 1   
    47    19    20 1   
    48    20    21 1   
    49    21    51 1   
    50    21    52 1   
    51    21    53 1   
    52    22    23 ar  
    53    22    27 ar  
    54    23    24 ar  
    55    23    54 1   
    56    24    25 ar  
    57    24    55 1   
    58    25    26 ar  
    59    26    27 ar  
    60    26    56 1   
    61    27    57 1   
@<TRIPOS>SUBSTRUCTURE
     1 9VN         1 TEMP              0 ****  ****    0 ROOT
