@<TRIPOS>MOLECULE
9VO
   26    27     1     0     0
SMALL
No Charge or Current Charge


@<TRIPOS>ATOM
      1 C1          27.4570     0.7310    -0.8630 ca         1 9VO      -0.228000
      2 C2          26.2650     0.2920    -0.2640 ca         1 9VO       0.385900
      3 C3          28.1270    -0.1160    -1.7580 ca         1 9VO      -0.032000
      4 C4          27.5590    -1.3730    -2.0110 ca         1 9VO      -0.240000
      5 C5          26.3630    -1.7190    -1.3700 ca         1 9VO       0.619900
      6 C8          24.3330    -3.2320    -1.5650 c3         1 9VO       0.287100
      7 C11         23.0080    -2.6990    -5.1310 ca         1 9VO      -0.109000
      8 C12         22.3530    -1.4610    -5.0080 ca         1 9VO      -0.112000
      9 C13         22.3400    -0.7960    -3.7710 ca         1 9VO      -0.109000
     10 C14         22.9800    -1.3680    -2.6570 ca         1 9VO      -0.101000
     11 N6          25.7210    -0.9200    -0.5090 nb         1 9VO      -0.741000
     12 C10         23.6480    -3.2710    -4.0180 ca         1 9VO      -0.101000
     13 C9          23.6390    -2.6090    -2.7730 ca         1 9VO      -0.094300
     14 N7          25.7780    -2.9440    -1.5870 nu         1 9VO      -0.946100
     15 H1          27.8520     1.7160    -0.6290 ha         1 9VO       0.123000
     16 H2          25.7280     0.9310     0.4370 h4         1 9VO       0.014100
     17 H3          29.0540     0.1910    -2.2390 ha         1 9VO       0.113000
     18 H4          28.0380    -2.0650    -2.6960 ha         1 9VO       0.116000
     19 H5          23.8740    -2.8640    -0.6360 h1         1 9VO       0.057200
     20 H6          24.1720    -4.3190    -1.5910 h1         1 9VO       0.057200
     21 H8          21.8580    -1.0190    -5.8700 ha         1 9VO       0.111000
     22 H9          21.8340     0.1620    -3.6740 ha         1 9VO       0.110500
     23 H10         22.9670    -0.8450    -1.7030 ha         1 9VO       0.109000
     24 H11         24.1530    -4.2290    -4.1230 ha         1 9VO       0.109000
     25 H12         26.3300    -3.5380    -2.1990 hn         1 9VO       0.490000
     26 H7          23.0190    -3.2150    -6.0890 ha         1 9VO       0.110500
@<TRIPOS>BOND
     1     1     2 ar  
     2     1     3 ar  
     3     1    15 1   
     4     2    11 ar  
     5     2    16 1   
     6     3     4 ar  
     7     3    17 1   
     8     4     5 ar  
     9     4    18 1   
    10     5    11 ar  
    11     5    14 1   
    12     6    13 1   
    13     6    14 1   
    14     6    19 1   
    15     6    20 1   
    16     7     8 ar  
    17     7    12 ar  
    18     7    26 1   
    19     8     9 ar  
    20     8    21 1   
    21     9    10 ar  
    22     9    22 1   
    23    10    13 ar  
    24    10    23 1   
    25    12    13 ar  
    26    12    24 1   
    27    14    25 1   
@<TRIPOS>SUBSTRUCTURE
     1 9VO         1 TEMP              0 ****  ****    0 ROOT
