@<TRIPOS>MOLECULE
9VO
   26    27     1     0     0
SMALL
bcc


@<TRIPOS>ATOM
      1 C1          27.8040     0.5650    -1.2270 ca         1 9VO      -0.311300
      2 C2          26.4370     0.4620    -1.0660 ca         1 9VO       0.451200
      3 C3          28.4990    -0.6040    -1.5480 ca         1 9VO      -0.050000
      4 C4          27.8140    -1.7870    -1.6860 ca         1 9VO      -0.323300
      5 C5          26.4160    -1.7820    -1.4960 ca         1 9VO       0.685200
      6 C8          24.2760    -2.9880    -1.5080 c3         1 9VO       0.287100
      7 C11         23.3690    -1.8900    -5.0460 ca         1 9VO      -0.127000
      8 C12         22.0760    -1.4160    -4.8670 ca         1 9VO      -0.130000
      9 C13         21.5110    -1.4380    -3.5980 ca         1 9VO      -0.127000
     10 C14         22.2370    -1.9280    -2.5210 ca         1 9VO      -0.119000
     11 N6          25.7500    -0.6700    -1.1970 nb         1 9VO      -0.741000
     12 C10         24.0910    -2.3840    -3.9660 ca         1 9VO      -0.119000
     13 C9          23.5320    -2.4090    -2.6920 ca         1 9VO      -0.094300
     14 N7          25.7070    -2.9360    -1.5990 nu         1 9VO      -0.890900
     15 H1          28.3070     1.5140    -1.1100 ha         1 9VO       0.141000
     16 H2          25.8510     1.3420    -0.8190 h4         1 9VO       0.014100
     17 H3          29.5720    -0.5830    -1.6900 ha         1 9VO       0.131000
     18 H4          28.3280    -2.7070    -1.9340 ha         1 9VO       0.134000
     19 H5          23.9420    -2.4880    -0.5970 h1         1 9VO       0.057200
     20 H6          24.0040    -4.0400    -1.3970 h1         1 9VO       0.057200
     21 H8          21.5150    -1.0290    -5.7070 ha         1 9VO       0.129000
     22 H9          20.5060    -1.0670    -3.4450 ha         1 9VO       0.128500
     23 H10         21.7920    -1.9340    -1.5320 ha         1 9VO       0.127000
     24 H11         25.0990    -2.7480    -4.1220 ha         1 9VO       0.127000
     25 H12         26.1960    -3.7610    -1.8990 hn         1 9VO       0.434800
     26 H7          23.8200    -1.8740    -6.0300 ha         1 9VO       0.128500
@<TRIPOS>BOND
     1     1     2 ar  
     2     1     3 ar  
     3     1    15 1   
     4     2    11 ar  
     5     2    16 1   
     6     3     4 ar  
     7     3    17 1   
     8     4     5 ar  
     9     4    18 1   
    10     5    11 ar  
    11     5    14 1   
    12     6    13 1   
    13     6    14 1   
    14     6    19 1   
    15     6    20 1   
    16     7     8 ar  
    17     7    12 ar  
    18     7    26 1   
    19     8     9 ar  
    20     8    21 1   
    21     9    10 ar  
    22     9    22 1   
    23    10    13 ar  
    24    10    23 1   
    25    12    13 ar  
    26    12    24 1   
    27    14    25 1   
@<TRIPOS>SUBSTRUCTURE
     1 9VO         1 TEMP              0 ****  ****    0 ROOT
