@<TRIPOS>MOLECULE
9VP
   37    37     1     0     0
SMALL
No Charge or Current Charge


@<TRIPOS>ATOM
      1 O1B         -4.4500    -0.1890    -0.9630 o          1 9VP      -0.705500
      2 C1          -3.6520    -0.2880    -0.0390 c          1 9VP       0.743000
      3 O1A         -3.8240     0.3770     0.9770 o          1 9VP      -0.705500
      4 C2          -2.1730    -0.5630    -0.4730 c6         1 9VP      -0.004700
      5 C3          -1.8130    -2.0490    -0.2210 c6         1 9VP       0.181300
      6 F1          -1.9340    -2.3280     1.1570 f          1 9VP      -0.267000
      7 C4          -0.3530    -2.3430    -0.6430 c6         1 9VP      -0.125400
      8 O6          -1.1890     0.3110     0.1630 os         1 9VP      -0.410000
      9 C6           0.1720     0.1230    -0.3080 c6         1 9VP       0.124300
     10 C7           1.0400     1.2080     0.4180 c3         1 9VP       0.159300
     11 C8           0.9050     2.6310    -0.2110 c3         1 9VP       0.132300
     12 C9           1.7420     3.7100     0.5310 c3         1 9VP       0.126600
     13 O9           1.6800     4.9600    -0.1810 oh         1 9VP      -0.706000
     14 O7           0.6640     1.2530     1.8080 oh         1 9VP      -0.725000
     15 C5           0.6430    -1.3360    -0.0050 c6         1 9VP       0.077700
     16 N5           1.9990    -1.5870    -0.5270 ns         1 9VP      -0.502900
     17 C10          2.8900    -2.5100    -0.0290 c          1 9VP       0.600100
     18 O10          2.6410    -3.2100     0.9410 o          1 9VP      -0.601100
     19 C11          4.2140    -2.5850    -0.7790 c3         1 9VP      -0.182100
     20 O8           1.3350     2.6200    -1.5850 oh         1 9VP      -0.630000
     21 H2          -2.1240    -0.3810    -1.5560 h1         1 9VP       0.022700
     22 H3          -2.5090    -2.7110    -0.7560 h1         1 9VP       0.074700
     23 H4          -0.0850    -3.3710    -0.3640 hc         1 9VP       0.039200
     24 H5          -0.2800    -2.2900    -1.7390 hc         1 9VP       0.039200
     25 H6           0.2000     0.2930    -1.3940 h1         1 9VP       0.030700
     26 H7           2.0960     0.9170     0.3330 h1         1 9VP       0.046700
     27 H8          -0.1520     2.9290    -0.1480 h1         1 9VP       0.124700
     28 H9           1.3520     3.8370     1.5500 h1         1 9VP       0.020700
     29 H10          2.7840     3.3700     0.6120 h1         1 9VP       0.020700
     30 H11          2.1670     5.6260     0.3600 ho         1 9VP       0.488000
     31 H12         -0.2880     0.9810     1.8040 ho         1 9VP       0.536000
     32 H13          0.6510    -1.4810     1.0870 h1         1 9VP       0.112700
     33 H14          2.3050    -1.0660    -1.3400 hn         1 9VP       0.297500
     34 H15          4.0140    -2.7820    -1.8390 hc         1 9VP       0.051367
     35 H16          4.6650    -1.5870    -0.8100 hc         1 9VP       0.051367
     36 H17          4.9000    -3.3260    -0.3540 hc         1 9VP       0.051367
     37 H18          1.5870     3.5550    -1.7640 ho         1 9VP       0.416000
@<TRIPOS>BOND
     1     1     2 1   
     2     2     3 1   
     3     2     4 1   
     4     4     5 1   
     5     4     8 1   
     6     4    21 1   
     7     5     6 1   
     8     5     7 1   
     9     5    22 1   
    10     7    15 1   
    11     7    23 1   
    12     7    24 1   
    13     8     9 1   
    14     9    10 1   
    15     9    15 1   
    16     9    25 1   
    17    10    11 1   
    18    10    14 1   
    19    10    26 1   
    20    11    12 1   
    21    11    20 1   
    22    11    27 1   
    23    12    13 1   
    24    12    28 1   
    25    12    29 1   
    26    13    30 1   
    27    14    31 1   
    28    15    16 1   
    29    15    32 1   
    30    16    17 1   
    31    16    33 1   
    32    17    18 2   
    33    17    19 1   
    34    19    34 1   
    35    19    35 1   
    36    19    36 1   
    37    20    37 1   
@<TRIPOS>SUBSTRUCTURE
     1 9VP         1 TEMP              0 ****  ****    0 ROOT
