@<TRIPOS>MOLECULE
9VP
   37    37     1     0     0
SMALL
abcg2


@<TRIPOS>ATOM
      1 O1B         -4.4250    -0.7470    -0.5950 o          1 9VP      -0.705500
      2 C1          -3.5120    -0.0410    -0.1240 c          1 9VP       0.743000
      3 O1A         -3.6160     0.9430     0.6210 o          1 9VP      -0.705500
      4 C2          -2.0950    -0.4640    -0.5730 c6         1 9VP      -0.004700
      5 C3          -1.8340    -1.9330    -0.3090 c6         1 9VP       0.181300
      6 F1          -2.0280    -2.1810     1.0580 f          1 9VP      -0.267000
      7 C4          -0.4180    -2.3120    -0.6790 c6         1 9VP      -0.125400
      8 O6          -1.1190     0.3340     0.0530 os         1 9VP      -0.410000
      9 C6           0.1970     0.0940    -0.3870 c6         1 9VP       0.124300
     10 C7           1.0840     1.1220     0.3120 c3         1 9VP       0.159300
     11 C8           0.7420     2.5660    -0.1010 c3         1 9VP       0.132300
     12 C9           1.7110     3.5480     0.5390 c3         1 9VP       0.126600
     13 O9           1.3280     4.8590     0.1930 oh         1 9VP      -0.706000
     14 O7           1.0330     0.9700     1.7120 oh         1 9VP      -0.725000
     15 C5           0.6080    -1.3520    -0.0770 c6         1 9VP       0.077700
     16 N5           1.9240    -1.6220    -0.6060 ns         1 9VP      -0.502900
     17 C10          2.9540    -2.1210     0.1020 c          1 9VP       0.600100
     18 O10          2.8870    -2.3900     1.2930 o          1 9VP      -0.601100
     19 C11          4.2230    -2.3360    -0.6880 c3         1 9VP      -0.182100
     20 O8           0.7130     2.7070    -1.5040 oh         1 9VP      -0.630000
     21 H2          -2.0420    -0.3310    -1.6670 h1         1 9VP       0.022700
     22 H3          -2.5540    -2.5400    -0.8600 h1         1 9VP       0.074700
     23 H4          -0.2020    -3.3390    -0.3770 hc         1 9VP       0.039200
     24 H5          -0.3430    -2.2820    -1.7710 hc         1 9VP       0.039200
     25 H6           0.2700     0.2390    -1.4770 h1         1 9VP       0.030700
     26 H7           2.1220     0.9230     0.0220 h1         1 9VP       0.046700
     27 H8          -0.2730     2.7970     0.2400 h1         1 9VP       0.124700
     28 H9           1.7080     3.4000     1.6240 h1         1 9VP       0.020700
     29 H10          2.7300     3.3200     0.1910 h1         1 9VP       0.020700
     30 H11          1.9440     5.4660     0.6130 ho         1 9VP       0.488000
     31 H12          0.1080     1.0140     1.9800 ho         1 9VP       0.536000
     32 H13          0.6550    -1.4890     1.0030 h1         1 9VP       0.112700
     33 H14          2.0590    -1.4750    -1.5950 hn         1 9VP       0.297500
     34 H15          4.1490    -2.0220    -1.7270 hc         1 9VP       0.051367
     35 H16          5.0380    -1.7850    -0.2190 hc         1 9VP       0.051367
     36 H17          4.4890    -3.3920    -0.6640 hc         1 9VP       0.051367
     37 H18          1.6040     2.5710    -1.8450 ho         1 9VP       0.416000
@<TRIPOS>BOND
     1     1     2 1   
     2     2     3 1   
     3     2     4 1   
     4     4     5 1   
     5     4     8 1   
     6     4    21 1   
     7     5     6 1   
     8     5     7 1   
     9     5    22 1   
    10     7    15 1   
    11     7    23 1   
    12     7    24 1   
    13     8     9 1   
    14     9    10 1   
    15     9    15 1   
    16     9    25 1   
    17    10    11 1   
    18    10    14 1   
    19    10    26 1   
    20    11    12 1   
    21    11    20 1   
    22    11    27 1   
    23    12    13 1   
    24    12    28 1   
    25    12    29 1   
    26    13    30 1   
    27    14    31 1   
    28    15    16 1   
    29    15    32 1   
    30    16    17 1   
    31    16    33 1   
    32    17    18 2   
    33    17    19 1   
    34    19    34 1   
    35    19    35 1   
    36    19    36 1   
    37    20    37 1   
@<TRIPOS>SUBSTRUCTURE
     1 9VP         1 TEMP              0 ****  ****    0 ROOT
