@<TRIPOS>MOLECULE
9VQ
   26    27     1     0     0
SMALL
bcc


@<TRIPOS>ATOM
      1 C10          3.8540     0.8640     0.9980 cc         1 9VQ      -0.312300
      2 N12          2.5830     0.7320    -0.8570 nd         1 9VQ      -0.519800
      3 C13         -0.7430    -0.7380    -1.4810 ca         1 9VQ      -0.106500
      4 O01         -4.1380     1.3370     1.0390 oh         1 9VQ      -0.590800
      5 C03         -2.6000    -0.1000    -0.0730 ca         1 9VQ      -0.076300
      6 C04         -1.7870    -0.2960     1.0440 ca         1 9VQ      -0.113500
      7 C05         -0.4750    -0.7120     0.8960 ca         1 9VQ      -0.106500
      8 C06          0.0630    -0.9400    -0.3690 ca         1 9VQ      -0.107300
      9 C07          1.4920    -1.3860    -0.5240 c3         1 9VQ       0.108600
     10 N08          2.4320    -0.3620    -0.1190 na         1 9VQ       0.107400
     11 C09          3.1680    -0.3290     1.0080 cd         1 9VQ      -0.144300
     12 C11          3.4460     1.4820    -0.1950 cc         1 9VQ       0.302200
     13 C14         -2.0600    -0.3210    -1.3330 ca         1 9VQ      -0.113500
     14 H23          4.5450     1.2300     1.7380 ha         1 9VQ       0.162000
     15 H25         -0.3430    -0.9020    -2.4740 ha         1 9VQ       0.132500
     16 H15         -5.0600     1.4110     1.3020 ho         1 9VQ       0.404000
     17 H16         -4.6170    -0.5770     0.3980 h1         1 9VQ       0.026200
     18 H17         -4.4400     0.6060    -0.8900 h1         1 9VQ       0.026200
     19 H18         -2.1800    -0.1260     2.0380 ha         1 9VQ       0.136500
     20 H19          0.1350    -0.8650     1.7790 ha         1 9VQ       0.132500
     21 H20          1.6930    -2.2660     0.0870 h1         1 9VQ       0.065700
     22 H21          1.6990    -1.6550    -1.5600 h1         1 9VQ       0.065700
     23 H22          3.1550    -1.1410     1.7160 h4         1 9VQ       0.167000
     24 H24          3.7530     2.4380    -0.5910 h4         1 9VQ       0.035100
     25 H26         -2.6700    -0.1610    -2.2150 ha         1 9VQ       0.136500
     26 C02         -4.0400     0.3030     0.0860 c3         1 9VQ       0.184700
@<TRIPOS>BOND
     1     1    11 2   
     2     1    12 1   
     3     1    14 1   
     4     2    10 1   
     5     2    12 2   
     6     3     8 ar  
     7     3    13 ar  
     8     3    15 1   
     9     4    16 1   
    10     4    26 1   
    11     5     6 ar  
    12     5    13 ar  
    13     5    26 1   
    14     6     7 ar  
    15     6    19 1   
    16     7     8 ar  
    17     7    20 1   
    18     8     9 1   
    19     9    10 1   
    20     9    21 1   
    21     9    22 1   
    22    10    11 1   
    23    11    23 1   
    24    12    24 1   
    25    13    25 1   
    26    17    26 1   
    27    18    26 1   
@<TRIPOS>SUBSTRUCTURE
     1 9VQ         1 TEMP              0 ****  ****    0 ROOT
