@<TRIPOS>MOLECULE
9VQ
   26    27     1     0     0
SMALL
No Charge or Current Charge


@<TRIPOS>ATOM
      1 C10          3.9820     0.5730     1.2040 cc         1 9VQ      -0.229000
      2 N12          2.8200     1.0080    -0.7010 nd         1 9VQ      -0.519800
      3 C13         -0.9230    -0.8290    -1.5340 ca         1 9VQ      -0.088500
      4 O01         -4.3870     1.5250     0.1690 oh         1 9VQ      -0.653000
      5 C03         -2.6700    -0.1870     0.0460 ca         1 9VQ      -0.076300
      6 C04         -1.7070    -0.1420     1.0720 ca         1 9VQ      -0.095500
      7 C05         -0.3600    -0.4370     0.7970 ca         1 9VQ      -0.088500
      8 C06          0.0430    -0.7790    -0.5110 ca         1 9VQ      -0.107300
      9 C07          1.5030    -1.1130    -0.8260 c3         1 9VQ       0.137900
     10 N08          2.4930    -0.2370    -0.1680 na         1 9VQ       0.128800
     11 C09          3.2030    -0.5250     1.0040 cd         1 9VQ      -0.177000
     12 C11          3.7140     1.4600     0.1540 cc         1 9VQ       0.236900
     13 C14         -2.2700    -0.5330    -1.2580 ca         1 9VQ      -0.095500
     14 H23          4.6850     0.7500     2.0120 ha         1 9VQ       0.144000
     15 H25         -0.6330    -1.0960    -2.5480 ha         1 9VQ       0.114500
     16 H15         -5.3370     1.6650     0.3760 ho         1 9VQ       0.443000
     17 H16         -4.3620    -0.1740     1.3770 h1         1 9VQ       0.026200
     18 H17         -4.7730    -0.4650    -0.3200 h1         1 9VQ       0.026200
     19 H18         -2.0020     0.1230     2.0850 ha         1 9VQ       0.118500
     20 H19          0.3660    -0.4010     1.6060 ha         1 9VQ       0.114500
     21 H20          1.7040    -2.1470    -0.5210 h1         1 9VQ       0.065700
     22 H21          1.6680    -1.0560    -1.9090 h1         1 9VQ       0.065700
     23 H22          3.0910    -1.4450     1.5670 h4         1 9VQ       0.149000
     24 H24          4.1530     2.4350    -0.0110 h4         1 9VQ       0.035100
     25 H26         -3.0030    -0.5730    -2.0600 ha         1 9VQ       0.118500
     26 C02         -4.1310     0.1270     0.3460 c3         1 9VQ       0.207900
@<TRIPOS>BOND
     1     1    11 2   
     2     1    12 1   
     3     1    14 1   
     4     2    10 1   
     5     2    12 2   
     6     3     8 ar  
     7     3    13 ar  
     8     3    15 1   
     9     4    16 1   
    10     4    26 1   
    11     5     6 ar  
    12     5    13 ar  
    13     5    26 1   
    14     6     7 ar  
    15     6    19 1   
    16     7     8 ar  
    17     7    20 1   
    18     8     9 1   
    19     9    10 1   
    20     9    21 1   
    21     9    22 1   
    22    10    11 1   
    23    11    23 1   
    24    12    24 1   
    25    13    25 1   
    26    17    26 1   
    27    18    26 1   
@<TRIPOS>SUBSTRUCTURE
     1 9VQ         1 TEMP              0 ****  ****    0 ROOT
