@<TRIPOS>MOLECULE
9VR
   45    46     1     0     0
SMALL
bcc


@<TRIPOS>ATOM
      1 C10        229.3410    46.5920   204.8890 ca         1 9VR      -0.120000
      2 CE         225.4130    44.6260   206.0470 c3         1 9VR       0.106000
      3 CB         224.5030    47.3830   208.6480 c3         1 9VR      -0.045400
      4 CA         224.8930    48.7270   208.0240 c3         1 9VR       0.014500
      5 C26        228.2260    46.6480   202.7660 ca         1 9VR      -0.120000
      6 N1         229.4040    50.9610   202.9500 n2         1 9VR      -0.100200
      7 N2         229.9480    50.9310   204.0290 n2         1 9VR      -0.100200
      8 C3         228.7010    50.1860   203.9610 cx         1 9VR       0.053700
      9 C4         227.4960    50.8280   204.5900 c3         1 9VR       0.713900
     10 F5         226.3790    50.4920   203.9420 f          1 9VR      -0.208633
     11 F6         227.5900    52.1580   204.5830 f          1 9VR      -0.208633
     12 F7         227.3560    50.4360   205.8600 f          1 9VR      -0.208633
     13 C8         228.7290    48.7040   203.9070 ca         1 9VR      -0.075300
     14 C9         229.3010    47.9760   204.9450 ca         1 9VR      -0.075000
     15 C11        228.7980    45.9150   203.8000 ca         1 9VR      -0.120300
     16 C12        228.8550    44.4110   203.7030 c3         1 9VR       0.192700
     17 O13        228.7870    43.7620   204.9630 os         1 9VR      -0.429900
     18 C14        227.6840    43.8040   205.7350 c          1 9VR       0.756100
     19 O15        227.7580    43.3230   206.8460 o          1 9VR      -0.545000
     20 NZ         226.5700    44.3470   205.2160 ns         1 9VR      -0.592900
     21 CD         225.5690    45.9020   206.8640 c3         1 9VR      -0.105400
     22 CG         224.3230    46.2180   207.6810 c3         1 9VR      -0.054400
     23 N          225.1020    49.6850   209.1090 n8         1 9VR      -0.889800
     24 C          223.8250    49.1620   206.9940 c          1 9VR       0.899600
     25 O          224.0480    48.9090   205.7920 o          1 9VR      -0.843300
     26 OXT        222.8040    49.7110   207.4620 o          1 9VR      -0.843300
     27 C27        228.1920    48.0330   202.8140 ca         1 9VR      -0.075000
     28 H1         229.7970    46.0460   205.7050 ha         1 9VR       0.141500
     29 HE2        224.5540    44.7110   205.3810 h1         1 9VR       0.050700
     30 HE3        225.2240    43.7710   206.6970 h1         1 9VR       0.050700
     31 HB2        223.5740    47.5220   209.2120 hc         1 9VR       0.026200
     32 HB3        225.2690    47.1200   209.3840 hc         1 9VR       0.026200
     33 HA         225.8520    48.6080   207.5110 h1         1 9VR       0.036700
     34 H7         227.7950    46.1330   201.9150 ha         1 9VR       0.141500
     35 H10        229.7270    48.4890   205.7980 ha         1 9VR       0.147500
     36 H11        228.0850    44.0390   203.0190 h1         1 9VR       0.057200
     37 H12        229.8150    44.1060   203.2850 h1         1 9VR       0.057200
     38 HZ         226.5810    44.8020   204.3190 hn         1 9VR       0.313500
     39 HD2        226.4330    45.8020   207.5280 hc         1 9VR       0.057200
     40 HD3        225.7840    46.7300   206.1850 hc         1 9VR       0.057200
     41 HG2        223.4870    46.4070   207.0030 hc         1 9VR       0.031700
     42 HG3        224.0420    45.3330   208.2620 hc         1 9VR       0.031700
     43 H          225.4760    50.5420   208.7170 hn         1 9VR       0.326300
     44 H2         224.1860    49.9460   209.4580 hn         1 9VR       0.326300
     45 H22        227.7460    48.5870   201.9980 ha         1 9VR       0.147500
@<TRIPOS>BOND
     1     1    14 ar  
     2     1    15 ar  
     3     1    28 1   
     4     2    20 1   
     5     2    21 1   
     6     2    29 1   
     7     2    30 1   
     8     3     4 1   
     9     3    22 1   
    10     3    31 1   
    11     3    32 1   
    12     4    23 1   
    13     4    24 1   
    14     4    33 1   
    15     5    15 ar  
    16     5    27 ar  
    17     5    34 1   
    18     6     7 2   
    19     6     8 1   
    20     7     8 1   
    21     8     9 1   
    22     8    13 1   
    23     9    10 1   
    24     9    11 1   
    25     9    12 1   
    26    13    14 ar  
    27    13    27 ar  
    28    14    35 1   
    29    15    16 1   
    30    16    17 1   
    31    16    36 1   
    32    16    37 1   
    33    17    18 1   
    34    18    19 2   
    35    18    20 1   
    36    20    38 1   
    37    21    22 1   
    38    21    39 1   
    39    21    40 1   
    40    22    41 1   
    41    22    42 1   
    42    23    43 1   
    43    23    44 1   
    44    24    25 1   
    45    24    26 1   
    46    27    45 1   
@<TRIPOS>SUBSTRUCTURE
     1 9VR         1 TEMP              0 ****  ****    0 ROOT
