@<TRIPOS>MOLECULE
9VS
   91    97     1     0     0
SMALL
abcg2


@<TRIPOS>ATOM
      1 O01          6.5110    -5.2470     1.8360 oh         1 9VS      -0.660000
      2 C02          5.4530    -5.3290     0.9030 c6         1 9VS       0.170300
      3 C03          5.9150    -4.6820    -0.3930 c6         1 9VS      -0.093900
      4 C04          4.8100    -4.7160    -1.4470 c6         1 9VS      -0.090900
      5 C05          4.1780    -4.6660     1.4120 c6         1 9VS      -0.093900
      6 C06          3.0740    -4.7230     0.3630 c6         1 9VS      -0.090900
      7 C07          3.5070    -4.0840    -0.9590 c6         1 9VS       0.250500
      8 N08          3.7050    -2.6500    -0.8280 nu         1 9VS      -0.929100
      9 C09          2.7240    -1.7470    -0.7000 ca         1 9VS       0.438900
     10 C10          3.0160    -0.3610    -0.5310 cp         1 9VS      -0.261000
     11 C11          4.3860     0.1700    -0.4240 cp         1 9VS      -0.015000
     12 C12          4.8190     1.1980    -1.2630 ca         1 9VS      -0.114500
     13 C13          6.0930     1.7290    -1.1430 ca         1 9VS      -0.096500
     14 C14          6.9820     1.2450    -0.1870 ca         1 9VS      -0.086300
     15 C15          8.3840     1.7880    -0.0910 c3         1 9VS       0.214100
     16 N16          8.4340     3.2260    -0.2280 n3         1 9VS      -0.717600
     17 C17          9.7860     3.6990    -0.4740 c6         1 9VS       0.128800
     18 C18          9.7800     5.2070    -0.6920 c6         1 9VS       0.164300
     19 N19          9.1840     5.9500     0.4040 n3         1 9VS      -0.715600
     20 C20         10.0440     6.0550     1.5650 c3         1 9VS       0.153100
     21 C21          7.8670     5.4120     0.6970 c6         1 9VS       0.164300
     22 C22          7.8550     3.9040     0.9190 c6         1 9VS       0.128800
     23 C23          6.5520     0.2240     0.6540 ca         1 9VS      -0.096500
     24 C24          5.2760    -0.3070     0.5400 ca         1 9VS      -0.114500
     25 C25          1.9160     0.4590    -0.4820 ca         1 9VS       0.178900
     26 N26          0.6490     0.0400    -0.5500 nb         1 9VS      -0.265000
     27 C27          0.4960    -1.2680    -0.6670 ca         1 9VS       0.422900
     28 N28         -0.7590    -1.8130    -0.7080 nu         1 9VS      -0.927900
     29 C29         -2.0120    -1.2490    -0.5830 ca         1 9VS       0.338000
     30 C30         -3.1000    -2.1370    -0.5650 ca         1 9VS      -0.165500
     31 C31         -4.3920    -1.6800    -0.4380 ca         1 9VS      -0.051500
     32 C32         -4.6560    -0.3100    -0.3230 ca         1 9VS      -0.020000
     33 C33         -5.9830     0.1680    -0.1740 cg         1 9VS      -0.063000
     34 C34         -7.1110     0.5800    -0.0380 ch         1 9VS      -0.230000
     35 C35         -8.4420     1.0620     0.1310 ca         1 9VS       0.476000
     36 N36         -8.6020     2.3810     0.2480 nb         1 9VS      -0.645000
     37 C37         -9.8350     2.8410     0.4160 ca         1 9VS       0.330900
     38 C38        -10.9590     2.0340     0.4760 ca         1 9VS      -0.119000
     39 C39        -10.7910     0.6600     0.3530 ca         1 9VS      -0.062300
     40 C40        -11.9730    -0.2690     0.4090 c5         1 9VS       0.424600
     41 O41        -12.8970     0.0630    -0.5970 os         1 9VS      -0.461500
     42 C42        -14.2060     0.0130    -0.0430 c5         1 9VS       0.120600
     43 C43        -13.9740    -0.4870     1.3790 c5         1 9VS       0.120600
     44 O44        -12.6330    -0.1060     1.6250 os         1 9VS      -0.461500
     45 C45         -9.5130     0.1650     0.1760 ca         1 9VS      -0.122000
     46 C46         -3.5740     0.5730    -0.3480 ca         1 9VS      -0.051500
     47 C47         -2.2730     0.1230    -0.4760 ca         1 9VS      -0.165500
     48 N48          1.4680    -2.1730    -0.7560 nb         1 9VS      -0.340000
     49 H011         6.2230    -5.6710     2.6510 ho         1 9VS       0.443000
     50 H021         5.2180    -6.3840     0.6870 h1         1 9VS       0.026700
     51 H031         6.2300    -3.6510    -0.1870 hc         1 9VS       0.050700
     52 H032         6.7990    -5.1980    -0.7750 hc         1 9VS       0.050700
     53 H042         5.1420    -4.2250    -2.3650 hc         1 9VS       0.054950
     54 H041         4.5960    -5.7540    -1.7130 hc         1 9VS       0.054950
     55 H052         3.8430    -5.1610     2.3280 hc         1 9VS       0.050700
     56 H051         4.3940    -3.6250     1.6810 hc         1 9VS       0.050700
     57 H061         2.8090    -5.7660     0.1610 hc         1 9VS       0.054950
     58 H062         2.1670    -4.2410     0.7290 hc         1 9VS       0.054950
     59 H071         2.7290    -4.2550    -1.7070 h1         1 9VS       0.071700
     60 H081         4.6480    -2.2970    -0.8610 hn         1 9VS       0.508000
     61 H121         4.1520     1.5820    -2.0260 ha         1 9VS       0.116500
     62 H131         6.4040     2.5350    -1.7960 ha         1 9VS       0.122000
     63 H151         8.8450     1.4410     0.8490 h1         1 9VS       0.038200
     64 H152         8.9820     1.3540    -0.8990 h1         1 9VS       0.038200
     65 H171        10.4660     3.4390     0.3560 h1         1 9VS       0.036450
     66 H172        10.1780     3.2060    -1.3670 h1         1 9VS       0.036450
     67 H182        10.8010     5.5610    -0.8560 h1         1 9VS       0.058200
     68 H181         9.2150     5.4240    -1.6050 h1         1 9VS       0.058200
     69 H201        10.9740     6.5520     1.2840 h1         1 9VS       0.029033
     70 H203         9.5600     6.6710     2.3250 h1         1 9VS       0.029033
     71 H202        10.3160     5.1020     2.0400 h1         1 9VS       0.029033
     72 H212         7.4570     5.9190     1.5730 h1         1 9VS       0.058200
     73 H211         7.2070     5.6400    -0.1460 h1         1 9VS       0.058200
     74 H221         6.8220     3.5760     1.0540 h1         1 9VS       0.036450
     75 H222         8.3920     3.6450     1.8480 h1         1 9VS       0.036450
     76 H231         7.2190    -0.1580     1.4190 ha         1 9VS       0.122000
     77 H241         4.9620    -1.0800     1.2330 ha         1 9VS       0.116500
     78 H251         2.0540     1.5290    -0.3620 h4         1 9VS       0.023100
     79 H3          -0.7440    -2.8200    -0.7860 hn         1 9VS       0.507000
     80 H301        -2.9220    -3.2030    -0.6470 ha         1 9VS       0.133000
     81 H311        -5.2080    -2.3900    -0.4240 ha         1 9VS       0.120500
     82 H371        -9.9350     3.9170     0.5080 h4         1 9VS       0.022100
     83 H381       -11.9350     2.4780     0.6190 ha         1 9VS       0.132000
     84 H401       -11.6420    -1.3130     0.2780 h2         1 9VS       0.051700
     85 H422       -14.6490     1.0130    -0.0590 h1         1 9VS       0.059700
     86 H421       -14.8420    -0.6600    -0.6200 h1         1 9VS       0.059700
     87 H432       -14.6200    -0.0160     2.1190 h1         1 9VS       0.059700
     88 H431       -14.0930    -1.5750     1.4460 h1         1 9VS       0.059700
     89 H451        -9.3350    -0.8980     0.0750 ha         1 9VS       0.129000
     90 H461        -3.7520     1.6370    -0.2650 ha         1 9VS       0.120500
     91 H471        -1.4630     0.8320    -0.4900 ha         1 9VS       0.133000
@<TRIPOS>BOND
     1     1     2 1   
     2     1    49 1   
     3     2     3 1   
     4     2     5 1   
     5     2    50 1   
     6     3     4 1   
     7     3    51 1   
     8     3    52 1   
     9     4     7 1   
    10     4    53 1   
    11     4    54 1   
    12     5     6 1   
    13     5    55 1   
    14     5    56 1   
    15     6     7 1   
    16     6    57 1   
    17     6    58 1   
    18     7     8 1   
    19     7    59 1   
    20     8     9 1   
    21     8    60 1   
    22     9    10 ar  
    23     9    48 ar  
    24    10    11 1   
    25    10    25 ar  
    26    11    12 ar  
    27    11    24 ar  
    28    12    13 ar  
    29    12    61 1   
    30    13    14 ar  
    31    13    62 1   
    32    14    15 1   
    33    14    23 ar  
    34    15    16 1   
    35    15    63 1   
    36    15    64 1   
    37    16    17 1   
    38    16    22 1   
    39    17    18 1   
    40    17    65 1   
    41    17    66 1   
    42    18    19 1   
    43    18    67 1   
    44    18    68 1   
    45    19    20 1   
    46    19    21 1   
    47    20    69 1   
    48    20    70 1   
    49    20    71 1   
    50    21    22 1   
    51    21    72 1   
    52    21    73 1   
    53    22    74 1   
    54    22    75 1   
    55    23    24 ar  
    56    23    76 1   
    57    24    77 1   
    58    25    26 ar  
    59    25    78 1   
    60    26    27 ar  
    61    27    28 1   
    62    27    48 ar  
    63    28    29 1   
    64    28    79 1   
    65    29    30 ar  
    66    29    47 ar  
    67    30    31 ar  
    68    30    80 1   
    69    31    32 ar  
    70    31    81 1   
    71    32    33 1   
    72    32    46 ar  
    73    33    34 3   
    74    34    35 1   
    75    35    36 ar  
    76    35    45 ar  
    77    36    37 ar  
    78    37    38 ar  
    79    37    82 1   
    80    38    39 ar  
    81    38    83 1   
    82    39    40 1   
    83    39    45 ar  
    84    40    41 1   
    85    40    44 1   
    86    40    84 1   
    87    41    42 1   
    88    42    43 1   
    89    42    85 1   
    90    42    86 1   
    91    43    44 1   
    92    43    87 1   
    93    43    88 1   
    94    45    89 1   
    95    46    47 ar  
    96    46    90 1   
    97    47    91 1   
@<TRIPOS>SUBSTRUCTURE
     1 9VS         1 TEMP              0 ****  ****    0 ROOT
