@<TRIPOS>MOLECULE
9VS
   91    97     1     0     0
SMALL
No Charge or Current Charge


@<TRIPOS>ATOM
      1 O01          7.0420    -4.7770     1.6190 oh         1 9VS      -0.660000
      2 C02          5.8560    -5.0190     0.8590 c6         1 9VS       0.170300
      3 C03          6.0430    -4.4980    -0.5870 c6         1 9VS      -0.093900
      4 C04          4.7500    -4.6890    -1.4290 c6         1 9VS      -0.090900
      5 C05          4.6420    -4.3340     1.5370 c6         1 9VS      -0.093900
      6 C06          3.3460    -4.5200     0.7010 c6         1 9VS      -0.090900
      7 C07          3.5050    -4.0390    -0.7690 c6         1 9VS       0.250500
      8 N08          3.6290    -2.5730    -0.8350 nu         1 9VS      -0.929100
      9 C09          2.6150    -1.6390    -0.6680 ca         1 9VS       0.438900
     10 C10          2.9140    -0.2580    -0.6170 cp         1 9VS      -0.261000
     11 C11          4.3020     0.2930    -0.6820 cp         1 9VS      -0.015000
     12 C12          4.6190     1.3340    -1.5840 ca         1 9VS      -0.114500
     13 C13          5.9200     1.8600    -1.6540 ca         1 9VS      -0.096500
     14 C14          6.9360     1.3610    -0.8170 ca         1 9VS      -0.086300
     15 C15          8.3480     1.9350    -0.8960 c3         1 9VS       0.214100
     16 N16          8.4490     3.3300    -0.4040 n3         1 9VS      -0.717600
     17 C17          9.7980     3.9270    -0.6430 c6         1 9VS       0.128800
     18 C18          9.8920     5.4070    -0.1410 c6         1 9VS       0.164300
     19 N19          9.5200     5.5530     1.3030 n3         1 9VS      -0.715600
     20 C20         10.5470     5.0200     2.2290 c3         1 9VS       0.153100
     21 C21          8.1610     4.9650     1.5240 c6         1 9VS       0.164300
     22 C22          8.0550     3.4820     1.0330 c6         1 9VS       0.128800
     23 C23          6.6310     0.3340     0.0970 ca         1 9VS      -0.096500
     24 C24          5.3280    -0.1890     0.1660 ca         1 9VS      -0.114500
     25 C25          1.7990     0.6030    -0.5090 ca         1 9VS       0.178900
     26 N26          0.5380     0.1410    -0.4460 nb         1 9VS      -0.265000
     27 C27          0.3870    -1.1920    -0.5080 ca         1 9VS       0.422900
     28 N28         -0.8870    -1.7280    -0.4150 nu         1 9VS      -0.927900
     29 C29         -2.1800    -1.1990    -0.4000 ca         1 9VS       0.338000
     30 C30         -3.1980    -1.9420     0.2200 ca         1 9VS      -0.165500
     31 C31         -4.5200    -1.4600     0.2520 ca         1 9VS      -0.051500
     32 C32         -4.8350    -0.2290    -0.3510 ca         1 9VS      -0.020000
     33 C33         -6.1810     0.2640    -0.3230 cg         1 9VS      -0.063000
     34 C34         -7.3310     0.6710    -0.2940 ch         1 9VS      -0.230000
     35 C35         -8.6800     1.1270    -0.2540 ca         1 9VS       0.476000
     36 N36         -8.8880     2.4150    -0.6050 nb         1 9VS      -0.645000
     37 C37        -10.1600     2.8730    -0.5750 ca         1 9VS       0.330900
     38 C38        -11.2540     2.0760    -0.2010 ca         1 9VS      -0.119000
     39 C39        -11.0440     0.7320     0.1660 ca         1 9VS      -0.062300
     40 C40        -12.1980    -0.1740     0.5800 c5         1 9VS       0.424600
     41 O41        -13.1970    -0.2210    -0.4480 os         1 9VS      -0.461500
     42 C42        -14.3850    -0.7160     0.2080 c5         1 9VS       0.120600
     43 C43        -14.1880    -0.2870     1.6950 c5         1 9VS       0.120600
     44 O44        -12.9140     0.3940     1.6850 os         1 9VS      -0.461500
     45 C45         -9.7180     0.2590     0.1340 ca         1 9VS      -0.122000
     46 C46         -3.8230     0.5110    -0.9890 ca         1 9VS      -0.051500
     47 C47         -2.5030     0.0250    -1.0160 ca         1 9VS      -0.165500
     48 N48          1.3570    -2.1050    -0.6110 nb         1 9VS      -0.340000
     49 H011         6.8980    -5.1850     2.5010 ho         1 9VS       0.443000
     50 H021         5.6610    -6.1010     0.8130 h1         1 9VS       0.026700
     51 H031         6.3270    -3.4360    -0.5690 hc         1 9VS       0.050700
     52 H032         6.8750    -5.0310    -1.0680 hc         1 9VS       0.050700
     53 H042         4.8950    -4.2860    -2.4410 hc         1 9VS       0.054950
     54 H041         4.5630    -5.7640    -1.5570 hc         1 9VS       0.054950
     55 H052         4.4910    -4.7500     2.5420 hc         1 9VS       0.050700
     56 H051         4.8450    -3.2630     1.6740 hc         1 9VS       0.050700
     57 H061         3.0740    -5.5840     0.6960 hc         1 9VS       0.054950
     58 H062         2.5100    -3.9980     1.1860 hc         1 9VS       0.054950
     59 H071         2.6210    -4.3590    -1.3430 h1         1 9VS       0.071700
     60 H081         4.5580    -2.1710    -0.9210 hn         1 9VS       0.508000
     61 H121         3.8490     1.7300    -2.2420 ha         1 9VS       0.116500
     62 H131         6.1430     2.6600    -2.3580 ha         1 9VS       0.122000
     63 H151         9.0330     1.2880    -0.3300 h1         1 9VS       0.038200
     64 H152         8.6690     1.8910    -1.9460 h1         1 9VS       0.038200
     65 H171        10.5720     3.3300    -0.1380 h1         1 9VS       0.036450
     66 H172        10.0340     3.9090    -1.7170 h1         1 9VS       0.036450
     67 H182        10.9090     5.7840    -0.3200 h1         1 9VS       0.058200
     68 H181         9.2190     6.0190    -0.7600 h1         1 9VS       0.058200
     69 H201        11.5120     5.5180     2.0620 h1         1 9VS       0.029033
     70 H203        10.2540     5.1980     3.2720 h1         1 9VS       0.029033
     71 H202        10.6930     3.9400     2.0950 h1         1 9VS       0.029033
     72 H212         7.8860     5.0110     2.5880 h1         1 9VS       0.058200
     73 H211         7.4090     5.5570     0.9820 h1         1 9VS       0.058200
     74 H221         7.0190     3.1460     1.1840 h1         1 9VS       0.036450
     75 H222         8.6890     2.8480     1.6690 h1         1 9VS       0.036450
     76 H231         7.4010    -0.0540     0.7600 ha         1 9VS       0.122000
     77 H241         5.1080    -0.9650     0.8950 ha         1 9VS       0.116500
     78 H251         1.9230     1.6840    -0.4610 h4         1 9VS       0.023100
     79 H3          -0.8560    -2.7330    -0.2510 hn         1 9VS       0.507000
     80 H301        -2.9680    -2.8940     0.6900 ha         1 9VS       0.133000
     81 H311        -5.2960    -2.0440     0.7430 ha         1 9VS       0.120500
     82 H371       -10.3060     3.9140    -0.8610 h4         1 9VS       0.022100
     83 H381       -12.2540     2.5010    -0.1960 ha         1 9VS       0.132000
     84 H401       -11.8490    -1.1860     0.8260 h2         1 9VS       0.051700
     85 H422       -15.2780    -0.2700    -0.2510 h1         1 9VS       0.059700
     86 H421       -14.4350    -1.8080     0.1060 h1         1 9VS       0.059700
     87 H432       -14.9720     0.3940     2.0510 h1         1 9VS       0.059700
     88 H431       -14.1350    -1.1570     2.3630 h1         1 9VS       0.059700
     89 H451        -9.4900    -0.7680     0.4050 ha         1 9VS       0.129000
     90 H461        -4.0590     1.4590    -1.4680 ha         1 9VS       0.120500
     91 H471        -1.7450     0.6000    -1.5350 ha         1 9VS       0.133000
@<TRIPOS>BOND
     1     1     2 1   
     2     1    49 1   
     3     2     3 1   
     4     2     5 1   
     5     2    50 1   
     6     3     4 1   
     7     3    51 1   
     8     3    52 1   
     9     4     7 1   
    10     4    53 1   
    11     4    54 1   
    12     5     6 1   
    13     5    55 1   
    14     5    56 1   
    15     6     7 1   
    16     6    57 1   
    17     6    58 1   
    18     7     8 1   
    19     7    59 1   
    20     8     9 1   
    21     8    60 1   
    22     9    10 ar  
    23     9    48 ar  
    24    10    11 1   
    25    10    25 ar  
    26    11    12 ar  
    27    11    24 ar  
    28    12    13 ar  
    29    12    61 1   
    30    13    14 ar  
    31    13    62 1   
    32    14    15 1   
    33    14    23 ar  
    34    15    16 1   
    35    15    63 1   
    36    15    64 1   
    37    16    17 1   
    38    16    22 1   
    39    17    18 1   
    40    17    65 1   
    41    17    66 1   
    42    18    19 1   
    43    18    67 1   
    44    18    68 1   
    45    19    20 1   
    46    19    21 1   
    47    20    69 1   
    48    20    70 1   
    49    20    71 1   
    50    21    22 1   
    51    21    72 1   
    52    21    73 1   
    53    22    74 1   
    54    22    75 1   
    55    23    24 ar  
    56    23    76 1   
    57    24    77 1   
    58    25    26 ar  
    59    25    78 1   
    60    26    27 ar  
    61    27    28 1   
    62    27    48 ar  
    63    28    29 1   
    64    28    79 1   
    65    29    30 ar  
    66    29    47 ar  
    67    30    31 ar  
    68    30    80 1   
    69    31    32 ar  
    70    31    81 1   
    71    32    33 1   
    72    32    46 ar  
    73    33    34 3   
    74    34    35 1   
    75    35    36 ar  
    76    35    45 ar  
    77    36    37 ar  
    78    37    38 ar  
    79    37    82 1   
    80    38    39 ar  
    81    38    83 1   
    82    39    40 1   
    83    39    45 ar  
    84    40    41 1   
    85    40    44 1   
    86    40    84 1   
    87    41    42 1   
    88    42    43 1   
    89    42    85 1   
    90    42    86 1   
    91    43    44 1   
    92    43    87 1   
    93    43    88 1   
    94    45    89 1   
    95    46    47 ar  
    96    46    90 1   
    97    47    91 1   
@<TRIPOS>SUBSTRUCTURE
     1 9VS         1 TEMP              0 ****  ****    0 ROOT
