@<TRIPOS>MOLECULE
9VT
   31    32     1     0     0
SMALL
No Charge or Current Charge


@<TRIPOS>ATOM
      1 C10         -2.3300    -0.1150     0.2060 cc         1 9VT       0.690300
      2 N12         -0.8330    -0.6890     1.7620 nd         1 9VT      -0.276000
      3 C13         -0.1840     0.2610     1.1010 cc         1 9VT       0.374700
      4 C24          3.6590     0.1900    -1.1490 cc         1 9VT      -0.225000
      5 C26          2.7840     1.0420    -0.5510 cd         1 9VT      -0.133300
      6 C01         -5.7760    -0.7630    -1.2180 c3         1 9VT      -0.112100
      7 N08         -3.5080    -0.1500    -0.4790 nu         1 9VT      -0.916100
      8 N11         -2.0920    -0.9100     1.2330 nd         1 9VT      -0.424000
      9 C14          1.2000     0.7240     1.4540 c3         1 9VT       0.061300
     10 N17          2.2190     0.2840     0.4870 na         1 9VT       0.111800
     11 N18          2.7290    -1.0080     0.5420 nd         1 9VT      -0.509800
     12 C19          3.5870    -1.0240    -0.4560 cc         1 9VT       0.260300
     13 S31         -1.0670     0.9810    -0.2170 ss         1 9VT      -0.338800
     14 H21          4.2210    -2.5180    -1.8640 hc         1 9VT       0.047367
     15 H22          5.4840    -1.9920    -0.7350 hc         1 9VT       0.047367
     16 H23          4.1950    -3.0760    -0.1810 hc         1 9VT       0.047367
     17 H25          4.3010     0.3910    -2.0000 ha         1 9VT       0.143000
     18 H02         -6.1250     0.2740    -1.1380 hc         1 9VT       0.044367
     19 H03         -5.4360    -0.9410    -2.2450 hc         1 9VT       0.044367
     20 H04         -6.6270    -1.4250    -1.0190 hc         1 9VT       0.044367
     21 H06         -5.0240    -0.8770     0.8070 h1         1 9VT       0.058200
     22 H07         -4.3380    -2.0890    -0.2970 h1         1 9VT       0.058200
     23 H09         -3.5660     0.5120    -1.2480 hn         1 9VT       0.499000
     24 H16          1.2050     1.8180     1.5130 h1         1 9VT       0.087700
     25 H15          1.4680     0.3380     2.4440 h1         1 9VT       0.087700
     26 H29          1.3990     2.5930    -1.1400 hc         1 9VT       0.051367
     27 H30          2.6730     3.1360    -0.0320 hc         1 9VT       0.051367
     28 H28          3.0490     2.8300    -1.7330 hc         1 9VT       0.051367
     29 C27          2.4580     2.4760    -0.8800 c3         1 9VT      -0.032800
     30 C20          4.4160    -2.2190    -0.8280 c3         1 9VT      -0.119400
     31 C05         -4.6470    -1.0370    -0.2130 c3         1 9VT       0.224800
@<TRIPOS>BOND
     1     1     7 1   
     2     1     8 2   
     3     1    13 1   
     4     2     3 2   
     5     2     8 1   
     6     3     9 1   
     7     3    13 1   
     8     4     5 2   
     9     4    12 1   
    10     4    17 1   
    11     5    10 1   
    12     5    29 1   
    13     6    18 1   
    14     6    19 1   
    15     6    20 1   
    16     6    31 1   
    17     7    23 1   
    18     7    31 1   
    19     9    10 1   
    20     9    24 1   
    21     9    25 1   
    22    10    11 1   
    23    11    12 2   
    24    12    30 1   
    25    14    30 1   
    26    15    30 1   
    27    16    30 1   
    28    21    31 1   
    29    22    31 1   
    30    26    29 1   
    31    27    29 1   
    32    28    29 1   
@<TRIPOS>SUBSTRUCTURE
     1 9VT         1 TEMP              0 ****  ****    0 ROOT
