@<TRIPOS>MOLECULE
9VT
   31    32     1     0     0
SMALL
bcc


@<TRIPOS>ATOM
      1 C10         -2.2370    -0.1610     0.1010 cc         1 9VT       0.690300
      2 N12         -0.9930    -0.1670     1.9260 nd         1 9VT      -0.276000
      3 C13         -0.1420     0.3420     1.1140 cc         1 9VT       0.374700
      4 C24          3.5660     0.2870    -1.1870 cc         1 9VT      -0.308300
      5 C26          2.8030     1.1480    -0.4350 cd         1 9VT      -0.082600
      6 C01         -5.5960    -0.9760    -1.2240 c3         1 9VT      -0.112100
      7 N08         -3.3160    -0.3270    -0.6730 nu         1 9VT      -0.860900
      8 N11         -2.1900    -0.4600     1.3690 nd         1 9VT      -0.424000
      9 C14          1.2340     0.7840     1.4870 c3         1 9VT       0.032000
     10 N17          2.2060     0.3810     0.5070 na         1 9VT       0.090400
     11 N18          2.5250    -0.9140     0.3960 nd         1 9VT      -0.509800
     12 C19          3.3560    -0.9890    -0.6250 cc         1 9VT       0.325600
     13 S31         -0.7510     0.5180    -0.5080 ss         1 9VT      -0.338800
     14 H21          3.7840    -2.4660    -2.1130 hc         1 9VT       0.047367
     15 H22          5.0300    -2.3000    -0.8890 hc         1 9VT       0.047367
     16 H23          3.5180    -3.1160    -0.4930 hc         1 9VT       0.047367
     17 H25          4.1910     0.5440    -2.0280 ha         1 9VT       0.161000
     18 H02         -5.8730     0.0430    -1.4920 hc         1 9VT       0.044367
     19 H03         -5.2840    -1.4970    -2.1310 hc         1 9VT       0.044367
     20 H04         -6.4840    -1.4790    -0.8450 hc         1 9VT       0.044367
     21 H06         -4.8410    -0.4830     0.7300 h1         1 9VT       0.058200
     22 H07         -4.2720    -2.0250     0.1140 h1         1 9VT       0.058200
     23 H09         -3.2040    -0.2610    -1.6710 hn         1 9VT       0.443800
     24 H16          1.2700     1.8690     1.5840 h1         1 9VT       0.087700
     25 H15          1.4860     0.3610     2.4590 h1         1 9VT       0.087700
     26 H29          1.5560     2.8770    -0.7330 hc         1 9VT       0.051367
     27 H30          2.9200     3.1480     0.3470 hc         1 9VT       0.051367
     28 H28          3.1840     3.0000    -1.3860 hc         1 9VT       0.051367
     29 C27          2.6010     2.6170    -0.5510 c3         1 9VT      -0.032800
     30 C20          3.9510    -2.2870    -1.0500 c3         1 9VT      -0.119400
     31 C05         -4.5050    -0.9950    -0.1730 c3         1 9VT       0.224800
@<TRIPOS>BOND
     1     1     7 1   
     2     1     8 2   
     3     1    13 1   
     4     2     3 2   
     5     2     8 1   
     6     3     9 1   
     7     3    13 1   
     8     4     5 2   
     9     4    12 1   
    10     4    17 1   
    11     5    10 1   
    12     5    29 1   
    13     6    18 1   
    14     6    19 1   
    15     6    20 1   
    16     6    31 1   
    17     7    23 1   
    18     7    31 1   
    19     9    10 1   
    20     9    24 1   
    21     9    25 1   
    22    10    11 1   
    23    11    12 2   
    24    12    30 1   
    25    14    30 1   
    26    15    30 1   
    27    16    30 1   
    28    21    31 1   
    29    22    31 1   
    30    26    29 1   
    31    27    29 1   
    32    28    29 1   
@<TRIPOS>SUBSTRUCTURE
     1 9VT         1 TEMP              0 ****  ****    0 ROOT
