@<TRIPOS>MOLECULE
9VU
   39    42     1     0     0
SMALL
No Charge or Current Charge


@<TRIPOS>ATOM
      1 OAN         -0.6550     2.6510    -0.1900 o          1 9VU      -0.505000
      2 CAH          0.3820     2.0430     0.0500 c          1 9VU       0.531000
      3 NAG          1.2830     2.3380     1.0470 ns         1 9VU      -0.145000
      4 CAC          2.4160     1.5430     1.1180 ca         1 9VU      -0.020000
      5 CAB          3.4920     1.6340     2.0040 ca         1 9VU      -0.138000
      6 CAA          4.5440     0.7120     1.8560 ca         1 9VU      -0.071000
      7 CAF          4.5070    -0.2680     0.8320 ca         1 9VU      -0.083300
      8 CAJ          5.6730    -1.2430     0.6950 c3         1 9VU      -0.045800
      9 CAE          3.3970    -0.3290    -0.0530 ca         1 9VU       0.048100
     10 BrA          3.3570    -1.6330    -1.4700 br         1 9VU      -0.079100
     11 CAD          2.3420     0.5940     0.1160 ca         1 9VU      -0.123300
     12 CAI          1.0280     0.7660    -0.6650 c5         1 9VU       0.186300
     13 OAL          1.2910     1.0280    -2.0530 oh         1 9VU      -0.626000
     14 CAM          0.0870    -0.4640    -0.5550 c3         1 9VU      -0.207400
     15 CAO         -1.2820    -0.2130    -1.2000 c          1 9VU       0.600700
     16 OAP         -1.3420     0.0570    -2.3940 o          1 9VU      -0.530100
     17 CAQ         -2.5420    -0.3020    -0.3720 ca         1 9VU      -0.177600
     18 CAV         -3.6440     0.5240    -0.7100 ca         1 9VU      -0.035000
     19 CAU         -4.8090     0.4370     0.0630 ca         1 9VU       0.036100
     20 OAY         -5.9470     1.1530    -0.1300 os         1 9VU      -0.339100
     21 CAX         -6.8010     0.7110     0.9850 c5         1 9VU       0.376600
     22 OAW         -6.1210    -0.3670     1.7230 os         1 9VU      -0.340100
     23 CAT         -4.9090    -0.4250     1.1160 ca         1 9VU       0.089100
     24 CAS         -3.8540    -1.2710     1.4740 ca         1 9VU      -0.119000
     25 CAR         -2.6620    -1.2070     0.7210 ca         1 9VU      -0.066000
     26 HAG          1.1440     3.1200     1.6740 hn         1 9VU       0.174000
     27 HAB          3.5180     2.3950     2.7810 ha         1 9VU       0.127000
     28 HAA          5.3930     0.7620     2.5340 ha         1 9VU       0.118000
     29 HAJ1         5.3350    -2.2810     0.7990 hc         1 9VU       0.050700
     30 HAJ2         6.1600    -1.1410    -0.2820 hc         1 9VU       0.050700
     31 HAJ3         6.4390    -1.0730     1.4600 hc         1 9VU       0.050700
     32 HAL          0.4320     0.9190    -2.5270 ho         1 9VU       0.491000
     33 HAM1         0.5290    -1.3290    -1.0590 hc         1 9VU       0.085200
     34 HAM2        -0.0340    -0.7230     0.5010 hc         1 9VU       0.085200
     35 HAV         -3.5960     1.2210    -1.5440 ha         1 9VU       0.158000
     36 HAR         -1.8480    -1.8800     0.9820 ha         1 9VU       0.120000
     37 HAX1        -6.9710     1.5560     1.6630 h2         1 9VU       0.068700
     38 HAX2        -7.7570     0.3440     0.5940 h2         1 9VU       0.068700
     39 HAS         -3.9550    -1.9620     2.3070 ha         1 9VU       0.139000
@<TRIPOS>BOND
     1     1     2 2   
     2     2     3 1   
     3     2    12 1   
     4     3     4 1   
     5     3    26 1   
     6     4     5 ar  
     7     4    11 ar  
     8     5     6 ar  
     9     5    27 1   
    10     6     7 ar  
    11     6    28 1   
    12     7     8 1   
    13     7     9 ar  
    14     8    29 1   
    15     8    30 1   
    16     8    31 1   
    17     9    10 1   
    18     9    11 ar  
    19    11    12 1   
    20    12    13 1   
    21    12    14 1   
    22    13    32 1   
    23    14    15 1   
    24    14    33 1   
    25    14    34 1   
    26    15    16 2   
    27    15    17 1   
    28    17    18 ar  
    29    17    25 ar  
    30    18    19 ar  
    31    18    35 1   
    32    19    20 1   
    33    19    23 ar  
    34    20    21 1   
    35    21    22 1   
    36    21    37 1   
    37    21    38 1   
    38    22    23 1   
    39    23    24 ar  
    40    24    25 ar  
    41    24    39 1   
    42    25    36 1   
@<TRIPOS>SUBSTRUCTURE
     1 9VU         1 TEMP              0 ****  ****    0 ROOT
