@<TRIPOS>MOLECULE
9VU
   39    42     1     0     0
SMALL
abcg2


@<TRIPOS>ATOM
      1 OAN         -0.0290     3.2120    -0.2850 o          1 9VU      -0.505000
      2 CAH          0.8740     2.4660     0.0160 c          1 9VU       0.531000
      3 NAG          1.8180     2.6790     0.9660 ns         1 9VU      -0.145000
      4 CAC          2.7550     1.6540     1.0110 ca         1 9VU      -0.020000
      5 CAB          3.8730     1.5550     1.8110 ca         1 9VU      -0.138000
      6 CAA          4.6800     0.4350     1.6460 ca         1 9VU      -0.071000
      7 CAF          4.4110    -0.5660     0.7150 ca         1 9VU      -0.083300
      8 CAJ          5.3390    -1.7360     0.5810 c3         1 9VU      -0.045800
      9 CAE          3.2600    -0.4170    -0.0720 ca         1 9VU       0.048100
     10 BRA          2.8540    -1.7250    -1.3710 br         1 9VU      -0.079100
     11 CAD          2.4290     0.6740     0.0770 ca         1 9VU      -0.123300
     12 CAI          1.1420     1.0670    -0.6050 c5         1 9VU       0.186300
     13 OAL          1.3140     1.1480    -1.9830 oh         1 9VU      -0.626000
     14 CAM         -0.0110     0.1480    -0.1570 c3         1 9VU      -0.207400
     15 CAO         -1.3380     0.4380    -0.8260 c          1 9VU       0.600700
     16 OAP         -1.3750     0.9050    -1.9520 o          1 9VU      -0.530100
     17 CAQ         -2.5910     0.0910    -0.1250 ca         1 9VU      -0.177600
     18 CAV         -3.8100     0.4500    -0.7400 ca         1 9VU      -0.035000
     19 CAU         -4.9610     0.1020    -0.0950 ca         1 9VU       0.036100
     20 OAY         -6.2400     0.3350    -0.4640 os         1 9VU      -0.339100
     21 CAX         -7.0730    -0.2330     0.5370 c5         1 9VU       0.376600
     22 OAW         -6.2110    -0.8030     1.5200 os         1 9VU      -0.340100
     23 CAT         -4.9510    -0.5910     1.1110 ca         1 9VU       0.089100
     24 CAS         -3.7800    -0.9610     1.7260 ca         1 9VU      -0.119000
     25 CAR         -2.5930    -0.6020     1.0840 ca         1 9VU      -0.066000
     26 HAG          1.8740     3.5210     1.5200 hn         1 9VU       0.174000
     27 HAB          4.1230     2.3180     2.5350 ha         1 9VU       0.127000
     28 HAA          5.5640     0.3390     2.2640 ha         1 9VU       0.118000
     29 HAJ1         4.8290    -2.6850     0.7520 hc         1 9VU       0.050700
     30 HAJ2         5.7910    -1.7850    -0.4110 hc         1 9VU       0.050700
     31 HAJ3         6.1470    -1.6620     1.3060 hc         1 9VU       0.050700
     32 HAL          0.4250     1.2030    -2.3710 ho         1 9VU       0.491000
     33 HAM1         0.2290    -0.8950    -0.3890 hc         1 9VU       0.085200
     34 HAM2        -0.0940     0.2000     0.9290 hc         1 9VU       0.085200
     35 HAV         -3.8290     0.9840    -1.6800 ha         1 9VU       0.158000
     36 HAR         -1.6650    -0.8900     1.5540 ha         1 9VU       0.120000
     37 HAX1        -7.6890     0.5430     0.9960 h2         1 9VU       0.068700
     38 HAX2        -7.7010    -1.0140     0.1020 h2         1 9VU       0.068700
     39 HAS         -3.7700    -1.5030     2.6600 ha         1 9VU       0.139000
@<TRIPOS>BOND
     1     1     2 2   
     2     2     3 1   
     3     2    12 1   
     4     3     4 1   
     5     3    26 1   
     6     4     5 ar  
     7     4    11 ar  
     8     5     6 ar  
     9     5    27 1   
    10     6     7 ar  
    11     6    28 1   
    12     7     8 1   
    13     7     9 ar  
    14     8    29 1   
    15     8    30 1   
    16     8    31 1   
    17     9    10 1   
    18     9    11 ar  
    19    11    12 1   
    20    12    13 1   
    21    12    14 1   
    22    13    32 1   
    23    14    15 1   
    24    14    33 1   
    25    14    34 1   
    26    15    16 2   
    27    15    17 1   
    28    17    18 ar  
    29    17    25 ar  
    30    18    19 ar  
    31    18    35 1   
    32    19    20 1   
    33    19    23 ar  
    34    20    21 1   
    35    21    22 1   
    36    21    37 1   
    37    21    38 1   
    38    22    23 1   
    39    23    24 ar  
    40    24    25 ar  
    41    24    39 1   
    42    25    36 1   
@<TRIPOS>SUBSTRUCTURE
     1 9VU         1 TEMP              0 ****  ****    0 ROOT
