@<TRIPOS>MOLECULE
9VV
   69    74     1     0     0
SMALL
No Charge or Current Charge


@<TRIPOS>ATOM
      1 C17         13.4380     5.7040    -8.7000 c6         1 9VV       0.208800
      2 C20         12.8030     3.0140    -8.0360 c6         1 9VV       0.218800
      3 C21         11.6430     3.9280    -8.5510 c6         1 9VV       0.208800
      4 C22         15.0950     2.2190    -8.8630 ca         1 9VV       0.389900
      5 C24         15.8730     0.1640    -8.1940 ca         1 9VV       0.168900
      6 C26         17.0760     1.4950    -9.7810 ca         1 9VV       0.168900
      7 C28         18.0520    -0.8130    -9.0960 c3         1 9VV       0.265000
      8 C03         13.5590    10.7920    -6.3790 cc         1 9VV       0.248900
      9 C04         12.3270    10.8540    -7.0480 cc         1 9VV      -0.133800
     10 C05         11.8990    12.1430    -6.9770 cd         1 9VV      -0.165000
     11 C07         11.6340     9.7760    -7.6910 cc         1 9VV      -0.044200
     12 C08         12.0810     8.4250    -7.7600 cc         1 9VV      -0.193000
     13 C09         11.1250     7.7270    -8.4570 cd         1 9VV      -0.256000
     14 C11         10.4170     9.9110    -8.3280 cd         1 9VV      -0.171100
     15 C12         11.0000     6.3600    -8.8160 cd         1 9VV       0.450900
     16 C14          8.9640     6.9620    -9.7080 cc         1 9VV       0.135900
     17 C18         14.2530     4.5770    -9.4180 c6         1 9VV       0.218800
     18 C25         17.0010     0.3050    -9.0270 ca         1 9VV      -0.270300
     19 C29         17.4440    -2.0790    -9.7440 ca         1 9VV      -0.112300
     20 C30         16.3040    -2.0100   -10.5850 ca         1 9VV      -0.076000
     21 C31         15.7770    -3.1710   -11.1780 ca         1 9VV      -0.150500
     22 C32         16.3860    -4.4120   -10.9550 ca         1 9VV       0.178000
     23 C33         17.5280    -4.5000   -10.1500 ca         1 9VV      -0.150500
     24 C34         18.0590    -3.3420    -9.5540 ca         1 9VV      -0.076000
     25 C36         19.3010    -0.4440    -9.9390 c3         1 9VV      -0.112100
     26 F35         15.8790    -5.5240   -11.5290 f          1 9VV      -0.175000
     27 N01         12.9080    12.8000    -6.2610 na         1 9VV       0.132800
     28 N02         13.9470    11.9520    -5.8870 nd         1 9VV      -0.525800
     29 N10         10.1490     8.6260    -8.7740 na         1 9VV       0.286900
     30 N13          9.9010     5.9660    -9.4450 nc         1 9VV      -0.317000
     31 N15          8.9930     8.2750    -9.4240 nd         1 9VV      -0.302800
     32 N16         11.9780     5.3940    -8.5380 nh         1 9VV      -0.771300
     33 N19         14.0990     3.2250    -8.7730 nh         1 9VV      -0.778300
     34 N23         14.9250     1.1150    -8.1080 nb         1 9VV      -0.246000
     35 N27         16.1300     2.4490    -9.6970 nb         1 9VV      -0.246000
     36 C40         19.0090     1.1380    -6.8200 c3         1 9VV      -0.173100
     37 N37         18.4600    -1.1530    -7.7280 ns         1 9VV      -0.514900
     38 O39         19.8580    -0.9460    -5.9910 o          1 9VV      -0.600100
     39 H1          13.5730     6.6330    -9.2740 h1         1 9VV       0.069200
     40 H2          13.8880     5.8720    -7.7110 h1         1 9VV       0.069200
     41 H3          12.4660     1.9710    -8.1340 h1         1 9VV       0.069200
     42 H4          12.9500     3.2050    -6.9630 h1         1 9VV       0.069200
     43 H5          10.7540     3.7390    -7.9310 h1         1 9VV       0.069200
     44 H6          11.3880     3.6140    -9.5740 h1         1 9VV       0.069200
     45 H7          15.7230    -0.7250    -7.5840 h4         1 9VV       0.026600
     46 H8          17.8960     1.7050   -10.4640 h4         1 9VV       0.026600
     47 H9          14.1910     9.9260    -6.2360 h4         1 9VV       0.034100
     48 H10         11.0100    12.6360    -7.3530 h4         1 9VV       0.153000
     49 H11         13.8210    14.6960    -6.3470 h1         1 9VV       0.056033
     50 H12         12.0340    14.7200    -6.2850 h1         1 9VV       0.056033
     51 H13         12.9720    14.3290    -4.8140 h1         1 9VV       0.056033
     52 H14         12.9970     8.0430    -7.3170 ha         1 9VV       0.201000
     53 H15          9.7560    10.7540    -8.4850 h4         1 9VV       0.232000
     54 H16          8.0900     6.5820   -10.2230 h5         1 9VV       0.053100
     55 H17         15.3080     4.8890    -9.4220 h1         1 9VV       0.069200
     56 H18         13.9300     4.5250   -10.4680 h1         1 9VV       0.069200
     57 H19         15.8170    -1.0610   -10.7950 ha         1 9VV       0.122000
     58 H20         14.8990    -3.1070   -11.8160 ha         1 9VV       0.135000
     59 H21         18.0060    -5.4630    -9.9930 ha         1 9VV       0.135000
     60 H22         18.9610    -3.4360    -8.9520 ha         1 9VV       0.122000
     61 H23         19.7900     0.4710    -9.5940 hc         1 9VV       0.048367
     62 H24         20.0440    -1.2500    -9.9000 hc         1 9VV       0.048367
     63 H25         19.0260    -0.3030   -10.9910 hc         1 9VV       0.048367
     64 H26         19.6180     1.6130    -6.0430 hc         1 9VV       0.061367
     65 H27         19.2090     1.5700    -7.8030 hc         1 9VV       0.061367
     66 H28         17.9500     1.3690    -6.6690 hc         1 9VV       0.061367
     67 H29         18.4870    -2.1410    -7.5200 hn         1 9VV       0.309500
     68 C38         19.1790    -0.3850    -6.8350 c          1 9VV       0.602100
     69 C06         12.9350    14.2250    -5.9040 c3         1 9VV       0.074900
@<TRIPOS>BOND
     1     1    17 1   
     2     1    32 1   
     3     1    39 1   
     4     1    40 1   
     5     2     3 1   
     6     2    33 1   
     7     2    41 1   
     8     2    42 1   
     9     3    32 1   
    10     3    43 1   
    11     3    44 1   
    12     4    33 1   
    13     4    34 ar  
    14     4    35 ar  
    15     5    18 ar  
    16     5    34 ar  
    17     5    45 1   
    18     6    18 ar  
    19     6    35 ar  
    20     6    46 1   
    21     7    18 1   
    22     7    19 1   
    23     7    25 1   
    24     7    37 1   
    25     8     9 1   
    26     8    28 2   
    27     8    47 1   
    28     9    10 2   
    29     9    11 1   
    30    10    27 1   
    31    10    48 1   
    32    11    12 1   
    33    11    14 2   
    34    12    13 2   
    35    12    52 1   
    36    13    15 1   
    37    13    29 1   
    38    14    29 1   
    39    14    53 1   
    40    15    30 2   
    41    15    32 1   
    42    16    30 1   
    43    16    31 2   
    44    16    54 1   
    45    17    33 1   
    46    17    55 1   
    47    17    56 1   
    48    19    20 ar  
    49    19    24 ar  
    50    20    21 ar  
    51    20    57 1   
    52    21    22 ar  
    53    21    58 1   
    54    22    23 ar  
    55    22    26 1   
    56    23    24 ar  
    57    23    59 1   
    58    24    60 1   
    59    25    61 1   
    60    25    62 1   
    61    25    63 1   
    62    27    28 1   
    63    27    69 1   
    64    29    31 1   
    65    36    64 1   
    66    36    65 1   
    67    36    66 1   
    68    36    68 1   
    69    37    67 1   
    70    37    68 1   
    71    38    68 2   
    72    49    69 1   
    73    50    69 1   
    74    51    69 1   
@<TRIPOS>SUBSTRUCTURE
     1 9VV         1 TEMP              0 ****  ****    0 ROOT
