@<TRIPOS>MOLECULE
9VV
   69    74     1     0     0
SMALL
abcg2


@<TRIPOS>ATOM
      1 C17         13.4540     5.5580    -8.7700 c6         1 9VV       0.208800
      2 C20         12.8610     2.9430    -8.2150 c6         1 9VV       0.218800
      3 C21         11.7530     3.7680    -8.8410 c6         1 9VV       0.208800
      4 C22         15.1080     2.2940    -8.9180 ca         1 9VV       0.389900
      5 C24         15.8920     0.2710    -8.2700 ca         1 9VV       0.168900
      6 C26         17.1320     1.6370    -9.7000 ca         1 9VV       0.168900
      7 C28         18.1130    -0.6550    -9.0720 c3         1 9VV       0.265000
      8 C03         13.8840    10.9180    -7.2380 cc         1 9VV       0.248900
      9 C04         12.4870    10.7400    -7.2870 cc         1 9VV      -0.133800
     10 C05         11.9930    11.9450    -6.8230 cd         1 9VV      -0.165000
     11 C07         11.7510     9.5660    -7.7170 cc         1 9VV      -0.044200
     12 C08         12.2880     8.2850    -7.9350 cc         1 9VV      -0.193000
     13 C09         11.2480     7.4550    -8.3340 cd         1 9VV      -0.256000
     14 C11         10.3920     9.4960    -7.9830 cd         1 9VV      -0.171100
     15 C12         11.0440     6.0750    -8.6630 cd         1 9VV       0.450900
     16 C14          8.8090     6.5210    -8.8630 cc         1 9VV       0.135900
     17 C18         14.2630     4.5080    -9.5100 c6         1 9VV       0.218800
     18 C25         17.0580     0.4360    -9.0130 ca         1 9VV      -0.270300
     19 C29         17.4420    -1.8550    -9.7580 ca         1 9VV      -0.112300
     20 C30         17.3130    -1.8770   -11.1460 ca         1 9VV      -0.076000
     21 C31         16.6650    -2.9130   -11.7990 ca         1 9VV      -0.150500
     22 C32         16.1290    -3.9410   -11.0490 ca         1 9VV       0.178000
     23 C33         16.2200    -3.9510    -9.6730 ca         1 9VV      -0.150500
     24 C34         16.8750    -2.9030    -9.0370 ca         1 9VV      -0.076000
     25 C36         19.3710    -0.2320    -9.8390 c3         1 9VV      -0.112100
     26 F35         15.5020    -4.9490   -11.6740 f          1 9VV      -0.175000
     27 N01         13.0520    12.7230    -6.5420 na         1 9VV       0.132800
     28 N02         14.2070    12.1150    -6.7870 nd         1 9VV      -0.525800
     29 N10         10.1010     8.2330    -8.3420 na         1 9VV       0.286900
     30 N13          9.8170     5.6370    -8.8990 nc         1 9VV      -0.317000
     31 N15          8.8590     7.7920    -8.6180 nd         1 9VV      -0.302800
     32 N16         12.0480     5.1890    -8.7230 nh         1 9VV      -0.771300
     33 N19         14.1250     3.2170    -8.8710 nh         1 9VV      -0.778300
     34 N23         14.9340     1.1720    -8.2040 nb         1 9VV      -0.246000
     35 N27         16.1820     2.5570    -9.6680 nb         1 9VV      -0.246000
     36 C40         18.7500     1.1540    -6.6510 c3         1 9VV      -0.173100
     37 N37         18.5060    -1.0740    -7.7260 ns         1 9VV      -0.514900
     38 O39         19.4730    -0.9070    -5.7230 o          1 9VV      -0.600100
     39 H1          13.5730     6.4950    -9.3110 h1         1 9VV       0.069200
     40 H2          13.8610     5.6950    -7.7630 h1         1 9VV       0.069200
     41 H3          12.6030     1.8910    -8.3280 h1         1 9VV       0.069200
     42 H4          12.9160     3.1460    -7.1400 h1         1 9VV       0.069200
     43 H5          10.8220     3.5490    -8.3240 h1         1 9VV       0.069200
     44 H6          11.6160     3.4830    -9.8890 h1         1 9VV       0.069200
     45 H7          15.7360    -0.6310    -7.6860 h4         1 9VV       0.026600
     46 H8          17.9950     1.8810   -10.3090 h4         1 9VV       0.026600
     47 H9          14.6540    10.2160    -7.5210 h4         1 9VV       0.034100
     48 H10         10.9820    12.2880    -6.6720 h4         1 9VV       0.153000
     49 H11         13.5450    14.7460    -6.6940 h1         1 9VV       0.056033
     50 H12         12.0040    14.3860    -5.9020 h1         1 9VV       0.056033
     51 H13         13.5230    14.0980    -5.0420 h1         1 9VV       0.056033
     52 H14         13.3170     8.0080    -7.7860 ha         1 9VV       0.201000
     53 H15          9.6210    10.2480    -7.9380 h4         1 9VV       0.232000
     54 H16          7.8200     6.1330    -9.0750 h5         1 9VV       0.053100
     55 H17         15.3060     4.8190    -9.4940 h1         1 9VV       0.069200
     56 H18         13.9530     4.4710   -10.5600 h1         1 9VV       0.069200
     57 H19         17.7090    -1.0710   -11.7490 ha         1 9VV       0.122000
     58 H20         16.5790    -2.9150   -12.8780 ha         1 9VV       0.135000
     59 H21         15.7880    -4.7590    -9.0970 ha         1 9VV       0.135000
     60 H22         16.9180    -2.9220    -7.9570 ha         1 9VV       0.122000
     61 H23         19.8660     0.6020    -9.3430 hc         1 9VV       0.048367
     62 H24         20.0700    -1.0670    -9.8700 hc         1 9VV       0.048367
     63 H25         19.1720     0.0740   -10.8640 hc         1 9VV       0.048367
     64 H26         19.3410     1.5670    -5.8380 hc         1 9VV       0.061367
     65 H27         19.0440     1.6450    -7.5770 hc         1 9VV       0.061367
     66 H28         17.7040     1.4040    -6.4690 hc         1 9VV       0.061367
     67 H29         18.8170    -2.0350    -7.6680 hn         1 9VV       0.309500
     68 C38         18.9490    -0.3400    -6.6700 c          1 9VV       0.602100
     69 C06         13.0350    14.0660    -6.0140 c3         1 9VV       0.074900
@<TRIPOS>BOND
     1     1    17 1   
     2     1    32 1   
     3     1    39 1   
     4     1    40 1   
     5     2     3 1   
     6     2    33 1   
     7     2    41 1   
     8     2    42 1   
     9     3    32 1   
    10     3    43 1   
    11     3    44 1   
    12     4    33 1   
    13     4    34 ar  
    14     4    35 ar  
    15     5    18 ar  
    16     5    34 ar  
    17     5    45 1   
    18     6    18 ar  
    19     6    35 ar  
    20     6    46 1   
    21     7    18 1   
    22     7    19 1   
    23     7    25 1   
    24     7    37 1   
    25     8     9 1   
    26     8    28 2   
    27     8    47 1   
    28     9    10 2   
    29     9    11 1   
    30    10    27 1   
    31    10    48 1   
    32    11    12 1   
    33    11    14 2   
    34    12    13 2   
    35    12    52 1   
    36    13    15 1   
    37    13    29 1   
    38    14    29 1   
    39    14    53 1   
    40    15    30 2   
    41    15    32 1   
    42    16    30 1   
    43    16    31 2   
    44    16    54 1   
    45    17    33 1   
    46    17    55 1   
    47    17    56 1   
    48    19    20 ar  
    49    19    24 ar  
    50    20    21 ar  
    51    20    57 1   
    52    21    22 ar  
    53    21    58 1   
    54    22    23 ar  
    55    22    26 1   
    56    23    24 ar  
    57    23    59 1   
    58    24    60 1   
    59    25    61 1   
    60    25    62 1   
    61    25    63 1   
    62    27    28 1   
    63    27    69 1   
    64    29    31 1   
    65    36    64 1   
    66    36    65 1   
    67    36    66 1   
    68    36    68 1   
    69    37    67 1   
    70    37    68 1   
    71    38    68 2   
    72    49    69 1   
    73    50    69 1   
    74    51    69 1   
@<TRIPOS>SUBSTRUCTURE
     1 9VV         1 TEMP              0 ****  ****    0 ROOT
