@<TRIPOS>MOLECULE
9VW
   36    37     1     0     0
SMALL
abcg2


@<TRIPOS>ATOM
      1 C13          5.0380     1.4110     0.0820 ca         1 9VW       0.337900
      2 C20         -2.5170     0.1860    -0.0560 c6         1 9VW       0.116700
      3 C22         -3.1480     1.2640    -0.9320 c6         1 9VW      -0.091400
      4 C28         -5.4490     0.5030    -0.2320 c6         1 9VW      -0.077400
      5 O01         -0.2470    -0.6390     1.3980 o          1 9VW      -0.647100
      6 C02         -0.2210    -0.6750     0.1710 c          1 9VW       0.647100
      7 N03          0.8300    -1.1940    -0.5240 ns         1 9VW      -0.519900
      8 C05          2.0610    -1.5990     0.1110 c3         1 9VW       0.162300
      9 C08          3.1030    -0.5100     0.1450 ca         1 9VW      -0.176300
     10 C09          2.9590     0.6220     0.9420 ca         1 9VW      -0.052000
     11 C11          3.9400     1.5980     0.9120 ca         1 9VW      -0.167000
     12 N15          5.1930     0.3380    -0.6820 nb         1 9VW      -0.669000
     13 C16          4.2440    -0.5920    -0.6430 ca         1 9VW       0.339900
     14 N18         -1.2310    -0.2000    -0.6040 ns         1 9VW      -0.511900
     15 C25         -4.5080     1.6930    -0.3900 c6         1 9VW      -0.070900
     16 C31         -4.8200    -0.5780     0.6410 c6         1 9VW      -0.070900
     17 C34         -3.4610    -1.0080     0.0970 c6         1 9VW      -0.091400
     18 H1           5.8220     2.1590     0.0360 h4         1 9VW       0.018100
     19 H2          -2.3310     0.6140     0.9320 h1         1 9VW       0.083700
     20 H3          -2.4750     2.1230    -1.0000 hc         1 9VW       0.043950
     21 H4          -3.2690     0.8750    -1.9510 hc         1 9VW       0.043950
     22 H5          -6.4000     0.8280     0.1960 hc         1 9VW       0.039700
     23 H6          -5.6770     0.0870    -1.2190 hc         1 9VW       0.039700
     24 H7           0.8630    -1.0620    -1.5230 hn         1 9VW       0.303500
     25 H8           1.8340    -1.9340     1.1230 h1         1 9VW       0.067200
     26 H9           2.4550    -2.4640    -0.4250 h1         1 9VW       0.067200
     27 H10          2.0920     0.7350     1.5810 ha         1 9VW       0.140000
     28 H11          3.8640     2.4890     1.5210 ha         1 9VW       0.125000
     29 H12          4.3970    -1.4600    -1.2770 h4         1 9VW       0.013100
     30 H13         -1.2170    -0.4200    -1.5890 hn         1 9VW       0.297500
     31 H14         -4.3730     2.1780     0.5830 hc         1 9VW       0.042950
     32 H15         -4.9490     2.4430    -1.0510 hc         1 9VW       0.042950
     33 H16         -4.6980    -0.1940     1.6590 hc         1 9VW       0.042950
     34 H17         -5.4830    -1.4420     0.7140 hc         1 9VW       0.042950
     35 H18         -3.5900    -1.4810    -0.8830 hc         1 9VW       0.043950
     36 H19         -3.0040    -1.7530     0.7530 hc         1 9VW       0.043950
@<TRIPOS>BOND
     1     1    11 ar  
     2     1    12 ar  
     3     1    18 1   
     4     2     3 1   
     5     2    14 1   
     6     2    17 1   
     7     2    19 1   
     8     3    15 1   
     9     3    20 1   
    10     3    21 1   
    11     4    15 1   
    12     4    16 1   
    13     4    22 1   
    14     4    23 1   
    15     5     6 2   
    16     6     7 1   
    17     6    14 1   
    18     7     8 1   
    19     7    24 1   
    20     8     9 1   
    21     8    25 1   
    22     8    26 1   
    23     9    10 ar  
    24     9    13 ar  
    25    10    11 ar  
    26    10    27 1   
    27    11    28 1   
    28    12    13 ar  
    29    13    29 1   
    30    14    30 1   
    31    15    31 1   
    32    15    32 1   
    33    16    17 1   
    34    16    33 1   
    35    16    34 1   
    36    17    35 1   
    37    17    36 1   
@<TRIPOS>SUBSTRUCTURE
     1 9VW         1 TEMP              0 ****  ****    0 ROOT
