@<TRIPOS>MOLECULE
9VW
   36    37     1     0     0
SMALL
No Charge or Current Charge


@<TRIPOS>ATOM
      1 C13          5.1490     1.4210     0.1330 ca         1 9VW       0.337900
      2 C20         -2.5550     0.2220    -0.0290 c6         1 9VW       0.116700
      3 C22         -3.2120     1.1900    -1.0470 c6         1 9VW      -0.091400
      4 C28         -5.5380     0.4680    -0.2750 c6         1 9VW      -0.077400
      5 O01         -0.2640    -0.7550     1.4520 o          1 9VW      -0.647100
      6 C02         -0.2240    -0.6940     0.2350 c          1 9VW       0.647100
      7 N03          0.8580    -1.0700    -0.5110 ns         1 9VW      -0.519900
      8 C05          2.1100    -1.5830     0.0440 c3         1 9VW       0.162300
      9 C08          3.1720    -0.4990     0.1060 ca         1 9VW      -0.176300
     10 C09          3.1170     0.5080     1.0870 ca         1 9VW      -0.052000
     11 C11          4.1270     1.4830     1.0950 ca         1 9VW      -0.167000
     12 N15          5.2090     0.4550    -0.8140 nb         1 9VW      -0.669000
     13 C16          4.2330    -0.4830    -0.8200 ca         1 9VW       0.339900
     14 N18         -1.2570    -0.2360    -0.5350 ns         1 9VW      -0.511900
     15 C25         -4.6020     1.6680    -0.5580 c6         1 9VW      -0.070900
     16 C31         -4.8900    -0.5210     0.7250 c6         1 9VW      -0.070900
     17 C34         -3.4970    -0.9850     0.2300 c6         1 9VW      -0.091400
     18 H1           5.9440     2.1650     0.1190 h4         1 9VW       0.018100
     19 H2          -2.3920     0.7600     0.9180 h1         1 9VW       0.083700
     20 H3          -2.5600     2.0600    -1.2060 hc         1 9VW       0.043950
     21 H4          -3.3160     0.6950    -2.0220 hc         1 9VW       0.043950
     22 H5          -6.4970     0.8270     0.1230 hc         1 9VW       0.039700
     23 H6          -5.7650    -0.0530    -1.2150 hc         1 9VW       0.039700
     24 H7           0.7840    -0.9750    -1.5150 hn         1 9VW       0.303500
     25 H8           1.9360    -1.9880     1.0500 h1         1 9VW       0.067200
     26 H9           2.4590    -2.4120    -0.5870 h1         1 9VW       0.067200
     27 H10          2.3140     0.5340     1.8220 ha         1 9VW       0.140000
     28 H11          4.1250     2.2790     1.8350 ha         1 9VW       0.125000
     29 H12          4.3080    -1.2470    -1.5940 h4         1 9VW       0.013100
     30 H13         -1.1100    -0.2280    -1.5350 hn         1 9VW       0.297500
     31 H14         -4.4870     2.2720     0.3540 hc         1 9VW       0.042950
     32 H15         -5.0570     2.3260    -1.3120 hc         1 9VW       0.042950
     33 H16         -4.7910    -0.0410     1.7090 hc         1 9VW       0.042950
     34 H17         -5.5450    -1.3910     0.8670 hc         1 9VW       0.042950
     35 H18         -3.6110    -1.5740    -0.6900 hc         1 9VW       0.043950
     36 H19         -3.0490    -1.6560     0.9760 hc         1 9VW       0.043950
@<TRIPOS>BOND
     1     1    11 ar  
     2     1    12 ar  
     3     1    18 1   
     4     2     3 1   
     5     2    14 1   
     6     2    17 1   
     7     2    19 1   
     8     3    15 1   
     9     3    20 1   
    10     3    21 1   
    11     4    15 1   
    12     4    16 1   
    13     4    22 1   
    14     4    23 1   
    15     5     6 2   
    16     6     7 1   
    17     6    14 1   
    18     7     8 1   
    19     7    24 1   
    20     8     9 1   
    21     8    25 1   
    22     8    26 1   
    23     9    10 ar  
    24     9    13 ar  
    25    10    11 ar  
    26    10    27 1   
    27    11    28 1   
    28    12    13 ar  
    29    13    29 1   
    30    14    30 1   
    31    15    31 1   
    32    15    32 1   
    33    16    17 1   
    34    16    33 1   
    35    16    34 1   
    36    17    35 1   
    37    17    36 1   
@<TRIPOS>SUBSTRUCTURE
     1 9VW         1 TEMP              0 ****  ****    0 ROOT
