@<TRIPOS>MOLECULE
9VY
   68    74     1     0     0
SMALL
abcg2


@<TRIPOS>ATOM
      1 N1          -2.0670     0.6630    -0.1620 nb         1 9VY      -0.626000
      2 N3           5.5600     2.6980     0.0270 ns         1 9VY      -0.503900
      3 C4           1.3830     1.1770    -0.3010 ca         1 9VY      -0.023000
      4 C5           0.2730     0.4180    -0.6360 cp         1 9VY      -0.146500
      5 C6           0.3790    -0.9810    -0.7730 ca         1 9VY       0.327000
      6 C7          -2.5990    -1.2990    -3.0750 c3         1 9VY      -0.355100
      7 C8          -1.4490    -2.5140    -0.1020 c3         1 9VY       0.222100
      8 C10         -1.0270     1.0880    -0.8670 cp         1 9VY       0.384500
      9 C13         -6.5600     0.9100     0.9600 ca         1 9VY       0.001800
     10 C15         -4.5180     0.0520     1.5670 cc         1 9VY      -0.146200
     11 C17         -8.0240    -0.2490     2.9960 ca         1 9VY      -0.186000
     12 C20         -5.7650     2.0280    -1.1670 c6         1 9VY       0.311600
     13 C21         -3.4450     2.2740    -1.2660 ca         1 9VY       0.070100
     14 C22         -2.3630     2.7280    -2.0000 ca         1 9VY      -0.093000
     15 C24          6.0670    -0.4750     0.6530 ca         1 9VY      -0.082800
     16 C26          8.0960    -1.7260     0.2590 ca         1 9VY      -0.159500
     17 C28          8.0240    -0.0510     2.0050 ca         1 9VY      -0.159500
     18 O4           3.5550     3.1590     0.9460 o          1 9VY      -0.598100
     19 C31          6.0850     4.0340     0.1830 c3         1 9VY       0.095300
     20 C            3.9360     0.9460     0.2510 cc         1 9VY      -0.192400
     21 C3           2.5990     0.5320    -0.0810 ca         1 9VY      -0.078800
     22 N           -0.7660    -1.7380    -1.1270 nh         1 9VY      -0.811300
     23 S           -1.0420    -2.0790    -2.7160 s6         1 9VY       1.228100
     24 O2          -1.2320    -3.5150    -2.8750 o          1 9VY      -0.538000
     25 O1           0.0010    -1.4100    -3.4780 o          1 9VY      -0.538000
     26 C9           1.5810    -1.6370    -0.5630 ca         1 9VY      -0.101000
     27 C2           2.6610    -0.8520    -0.2130 ca         1 9VY       0.070100
     28 O            3.9160    -1.2850     0.0350 os         1 9VY      -0.159200
     29 C1           4.6750    -0.1980     0.3200 cd         1 9VY       0.132900
     30 C29          6.7030     0.2130     1.6870 ca         1 9VY      -0.049500
     31 C27          8.6980    -1.0170     1.2810 ca         1 9VY       0.192000
     32 F1           9.9760    -1.2790     1.5840 f          1 9VY      -0.171000
     33 C25          6.7750    -1.4520    -0.0500 ca         1 9VY      -0.049500
     34 C23         -1.1350     2.1220    -1.7960 ca         1 9VY      -0.119000
     35 C11         -3.2470     1.2360    -0.3480 ca         1 9VY       0.366800
     36 O3          -4.6560     2.8640    -1.4030 os         1 9VY      -0.329100
     37 N2          -5.6030     1.3540     0.0940 na         1 9VY      -0.125700
     38 C19         -7.9350     1.1450     1.0000 ca         1 9VY      -0.149000
     39 C18         -8.6450     0.5590     2.0280 ca         1 9VY      -0.058000
     40 C16         -6.6720    -0.4670     2.9230 ca         1 9VY       0.228000
     41 F           -6.0590    -1.2380     3.8350 f          1 9VY      -0.172000
     42 C14         -5.9000     0.0950     1.9080 ca         1 9VY      -0.153800
     43 C12         -4.3840     0.8270     0.4500 cd         1 9VY      -0.146900
     44 H20          6.1140     2.0280    -0.4790 hn         1 9VY       0.321500
     45 H            1.2980     2.2500    -0.1920 ha         1 9VY       0.147000
     46 H2          -3.3640    -1.6730    -2.3980 h1         1 9VY       0.101033
     47 H1          -2.4960    -0.2220    -2.9710 h1         1 9VY       0.101033
     48 H3          -2.8660    -1.5490    -4.1000 h1         1 9VY       0.101033
     49 H5          -1.5500    -1.8930     0.7830 h1         1 9VY       0.049700
     50 H6          -2.4550    -2.7770    -0.4250 h1         1 9VY       0.049700
     51 H4          -0.9130    -3.4300     0.1520 h1         1 9VY       0.049700
     52 H8          -3.7230    -0.4550     2.0880 ha         1 9VY       0.226000
     53 H9          -8.6060    -0.6970     3.7910 ha         1 9VY       0.133000
     54 H12         -6.6480     2.6620    -1.1430 h2         1 9VY       0.071200
     55 H13         -5.8630     1.2990    -1.9790 h2         1 9VY       0.071200
     56 H14         -2.4790     3.5320    -2.7150 ha         1 9VY       0.140000
     57 H17          8.6490    -2.4770    -0.2880 ha         1 9VY       0.139500
     58 H18          8.5170     0.4760     2.8110 ha         1 9VY       0.139500
     59 H22          7.1320     4.0250    -0.1040 h1         1 9VY       0.041700
     60 H21          5.5610     4.7560    -0.4450 h1         1 9VY       0.041700
     61 H23          6.0150     4.3650     1.2180 h1         1 9VY       0.041700
     62 H7           1.6640    -2.7100    -0.6790 ha         1 9VY       0.143000
     63 H19          6.1620     0.9460     2.2700 ha         1 9VY       0.133000
     64 H16          6.3030    -1.9970    -0.8570 ha         1 9VY       0.133000
     65 H15         -0.2720     2.4380    -2.3660 ha         1 9VY       0.141000
     66 H11         -8.4340     1.7600     0.2640 ha         1 9VY       0.119000
     67 H10         -9.7120     0.7220     2.0960 ha         1 9VY       0.117000
     68 C30          4.3350     2.3580     0.4460 c          1 9VY       0.635300
@<TRIPOS>BOND
     1     1     8 ar  
     2     1    35 ar  
     3     2    19 1   
     4     2    44 1   
     5     2    68 1   
     6     3     4 ar  
     7     3    21 ar  
     8     3    45 1   
     9     4     5 ar  
    10     4     8 1   
    11     5    22 1   
    12     5    26 ar  
    13     6    23 1   
    14     6    46 1   
    15     6    47 1   
    16     6    48 1   
    17     7    22 1   
    18     7    49 1   
    19     7    50 1   
    20     7    51 1   
    21     8    34 ar  
    22     9    37 1   
    23     9    38 ar  
    24     9    42 ar  
    25    10    42 1   
    26    10    43 2   
    27    10    52 1   
    28    11    39 ar  
    29    11    40 ar  
    30    11    53 1   
    31    12    36 1   
    32    12    37 1   
    33    12    54 1   
    34    12    55 1   
    35    13    14 ar  
    36    13    35 ar  
    37    13    36 1   
    38    14    34 ar  
    39    14    56 1   
    40    15    29 1   
    41    15    30 ar  
    42    15    33 ar  
    43    16    31 ar  
    44    16    33 ar  
    45    16    57 1   
    46    17    30 ar  
    47    17    31 ar  
    48    17    58 1   
    49    18    68 2   
    50    19    59 1   
    51    19    60 1   
    52    19    61 1   
    53    20    21 1   
    54    20    29 2   
    55    20    68 1   
    56    21    27 ar  
    57    22    23 1   
    58    23    24 2   
    59    23    25 2   
    60    26    27 ar  
    61    26    62 1   
    62    27    28 1   
    63    28    29 1   
    64    30    63 1   
    65    31    32 1   
    66    33    64 1   
    67    34    65 1   
    68    35    43 1   
    69    37    43 1   
    70    38    39 ar  
    71    38    66 1   
    72    39    67 1   
    73    40    41 1   
    74    40    42 ar  
@<TRIPOS>SUBSTRUCTURE
     1 9VY         1 TEMP              0 ****  ****    0 ROOT
