@<TRIPOS>MOLECULE
9VY
   68    74     1     0     0
SMALL
No Charge or Current Charge


@<TRIPOS>ATOM
      1 N1          -2.1710     0.6800    -0.1430 nb         1 9VY      -0.626000
      2 N3           5.5370     2.7230     0.0980 ns         1 9VY      -0.503900
      3 C4           1.2610     1.1320    -0.5340 ca         1 9VY      -0.023000
      4 C5           0.1240     0.3370    -0.8550 cp         1 9VY      -0.146500
      5 C6           0.2790    -1.0750    -1.0400 ca         1 9VY       0.327000
      6 C7          -1.0930    -0.9420    -3.9740 c3         1 9VY      -0.355100
      7 C8          -1.6320    -2.5470    -0.3790 c3         1 9VY       0.222100
      8 C10         -1.1940     1.0080    -1.0190 cp         1 9VY       0.384500
      9 C13         -6.5630     0.9200     1.3910 ca         1 9VY       0.001800
     10 C15         -4.4880     0.0560     1.7200 cc         1 9VY      -0.146200
     11 C17         -7.8460    -0.4790     3.4370 ca         1 9VY      -0.186000
     12 C20         -6.1000     2.2390    -0.7610 c6         1 9VY       0.311600
     13 C21         -3.6640     2.2510    -1.2690 ca         1 9VY       0.070100
     14 C22         -2.6380     2.6330    -2.1450 ca         1 9VY      -0.093000
     15 C24          5.9600    -0.3560     0.6030 ca         1 9VY      -0.082800
     16 C26          7.9900    -1.7190     0.7250 ca         1 9VY      -0.159500
     17 C28          7.6690     0.1070     2.2940 ca         1 9VY      -0.159500
     18 O4           3.3700     3.3650     0.2300 o          1 9VY      -0.598100
     19 C31          6.1280     4.0550     0.2340 c3         1 9VY       0.095300
     20 C            3.8230     1.0350    -0.0510 cc         1 9VY      -0.192400
     21 C3           2.5030     0.5050    -0.3770 ca         1 9VY      -0.078800
     22 N           -0.7900    -1.9060    -1.4020 nh         1 9VY      -0.811300
     23 S           -0.9430    -2.4460    -3.0290 s6         1 9VY       1.228100
     24 O2          -2.2060    -3.1850    -3.1240 o          1 9VY      -0.538000
     25 O1           0.3220    -3.0980    -3.3810 o          1 9VY      -0.538000
     26 C9           1.5460    -1.6710    -0.8630 ca         1 9VY      -0.101000
     27 C2           2.6240    -0.8510    -0.5350 ca         1 9VY       0.070100
     28 O            3.9160    -1.2150    -0.3330 os         1 9VY      -0.159200
     29 C1           4.6470    -0.0940    -0.0240 cd         1 9VY       0.132900
     30 C29          6.4240     0.3960     1.7070 ca         1 9VY      -0.049500
     31 C27          8.4510    -0.9440     1.7970 ca         1 9VY       0.192000
     32 F1           9.6450    -1.2220     2.3640 f          1 9VY      -0.171000
     33 C25          6.7450    -1.4330     0.1370 ca         1 9VY      -0.049500
     34 C23         -1.3880     2.0010    -2.0120 ca         1 9VY      -0.119000
     35 C11         -3.3730     1.2830    -0.2750 ca         1 9VY       0.366800
     36 O3          -4.9150     2.8620    -1.3550 os         1 9VY      -0.329100
     37 N2          -5.7160     1.4970     0.4590 na         1 9VY      -0.125700
     38 C19         -7.9380     1.1270     1.5850 ca         1 9VY      -0.149000
     39 C18         -8.5810     0.4160     2.6220 ca         1 9VY      -0.058000
     40 C16         -6.4670    -0.6660     3.2170 ca         1 9VY       0.228000
     41 F           -5.7560    -1.5210     3.9850 f          1 9VY      -0.172000
     42 C14         -5.8530     0.0540     2.1830 ca         1 9VY      -0.153800
     43 C12         -4.4490     0.9360     0.6450 cd         1 9VY      -0.146900
     44 H20          6.1510     1.9300    -0.0440 hn         1 9VY       0.321500
     45 H            1.1590     2.2060    -0.4030 ha         1 9VY       0.147000
     46 H2          -1.9770    -0.4130    -3.6050 h1         1 9VY       0.101033
     47 H1          -0.1800    -0.3590    -3.8170 h1         1 9VY       0.101033
     48 H3          -1.2080    -1.2250    -5.0240 h1         1 9VY       0.101033
     49 H5          -1.3640    -2.1840     0.6220 h1         1 9VY       0.049700
     50 H6          -2.6910    -2.3120    -0.5480 h1         1 9VY       0.049700
     51 H4          -1.5010    -3.6370    -0.3930 h1         1 9VY       0.049700
     52 H8          -3.6550    -0.5400     2.0880 ha         1 9VY       0.226000
     53 H9          -8.3430    -1.0260     4.2330 ha         1 9VY       0.133000
     54 H12         -6.8480     2.9970    -0.4890 h2         1 9VY       0.071200
     55 H13         -6.5370     1.5080    -1.4550 h2         1 9VY       0.071200
     56 H14         -2.8080     3.3900    -2.9070 ha         1 9VY       0.140000
     57 H17          8.5960    -2.5410     0.3520 ha         1 9VY       0.139500
     58 H18          8.0220     0.6880     3.1430 ha         1 9VY       0.139500
     59 H22          7.2220     3.9760     0.1990 h1         1 9VY       0.041700
     60 H21          5.7860     4.6970    -0.5880 h1         1 9VY       0.041700
     61 H23          5.8280     4.4970     1.1930 h1         1 9VY       0.041700
     62 H7           1.6820    -2.7410    -0.9870 ha         1 9VY       0.143000
     63 H19          5.8100     1.1800     2.1420 ha         1 9VY       0.133000
     64 H16          6.3980    -2.0420    -0.6960 ha         1 9VY       0.133000
     65 H15         -0.5700     2.2600    -2.6790 ha         1 9VY       0.141000
     66 H11         -8.4970     1.8180     0.9590 ha         1 9VY       0.119000
     67 H10         -9.6460     0.5580     2.7960 ha         1 9VY       0.117000
     68 C30          4.1880     2.4630     0.1260 c          1 9VY       0.635300
@<TRIPOS>BOND
     1     1     8 ar  
     2     1    35 ar  
     3     2    19 1   
     4     2    44 1   
     5     2    68 1   
     6     3     4 ar  
     7     3    21 ar  
     8     3    45 1   
     9     4     5 ar  
    10     4     8 1   
    11     5    22 1   
    12     5    26 ar  
    13     6    23 1   
    14     6    46 1   
    15     6    47 1   
    16     6    48 1   
    17     7    22 1   
    18     7    49 1   
    19     7    50 1   
    20     7    51 1   
    21     8    34 ar  
    22     9    37 1   
    23     9    38 ar  
    24     9    42 ar  
    25    10    42 1   
    26    10    43 2   
    27    10    52 1   
    28    11    39 ar  
    29    11    40 ar  
    30    11    53 1   
    31    12    36 1   
    32    12    37 1   
    33    12    54 1   
    34    12    55 1   
    35    13    14 ar  
    36    13    35 ar  
    37    13    36 1   
    38    14    34 ar  
    39    14    56 1   
    40    15    29 1   
    41    15    30 ar  
    42    15    33 ar  
    43    16    31 ar  
    44    16    33 ar  
    45    16    57 1   
    46    17    30 ar  
    47    17    31 ar  
    48    17    58 1   
    49    18    68 2   
    50    19    59 1   
    51    19    60 1   
    52    19    61 1   
    53    20    21 1   
    54    20    29 2   
    55    20    68 1   
    56    21    27 ar  
    57    22    23 1   
    58    23    24 2   
    59    23    25 2   
    60    26    27 ar  
    61    26    62 1   
    62    27    28 1   
    63    28    29 1   
    64    30    63 1   
    65    31    32 1   
    66    33    64 1   
    67    34    65 1   
    68    35    43 1   
    69    37    43 1   
    70    38    39 ar  
    71    38    66 1   
    72    39    67 1   
    73    40    41 1   
    74    40    42 ar  
@<TRIPOS>SUBSTRUCTURE
     1 9VY         1 TEMP              0 ****  ****    0 ROOT
