@<TRIPOS>MOLECULE
9VZ
   30    31     1     0     0
SMALL
No Charge or Current Charge


@<TRIPOS>ATOM
      1 C15         -0.0210    -0.5370    -0.9390 c6         1 9VZ       0.015900
      2 C01         -5.4270    -1.2590     0.9700 c3         1 9VZ      -0.098100
      3 C02         -4.6940    -0.4970    -0.1450 c3         1 9VZ       0.166600
      4 O03         -3.3130    -0.3890     0.2430 os         1 9VZ      -0.454100
      5 C04         -2.4530     0.2600    -0.6060 c          1 9VZ       0.594100
      6 O05         -2.7900     0.7500    -1.6750 o          1 9VZ      -0.486000
      7 C06         -1.0020     0.3150    -0.0940 c6         1 9VZ      -0.118700
      8 C07         -0.4930     1.7500     0.2070 c6         1 9VZ      -0.066400
      9 C08          0.8700     1.7160     0.9490 c6         1 9VZ      -0.104700
     10 C09          1.8220     0.7240     0.3220 cc         1 9VZ       0.288300
     11 N10          3.1660     0.7860     0.5790 nc         1 9VZ      -0.640000
     12 C11          3.7820    -0.1910    -0.0720 cd         1 9VZ       0.451700
     13 C12          5.2690    -0.3710     0.0200 c3         1 9VZ      -0.130400
     14 S13          2.7700    -1.2600    -1.0420 ss         1 9VZ      -0.061400
     15 C14          1.4100    -0.2930    -0.5080 cd         1 9VZ      -0.227300
     16 H30         -0.2790    -1.6020    -0.8560 hc         1 9VZ       0.064200
     17 H29         -0.1300    -0.2760    -2.0020 hc         1 9VZ       0.064200
     18 H18         -4.9990    -2.2610     1.0990 hc         1 9VZ       0.046700
     19 H17         -5.3500    -0.7200     1.9220 hc         1 9VZ       0.046700
     20 H16         -6.4880    -1.3680     0.7200 hc         1 9VZ       0.046700
     21 H20         -4.7940    -1.0460    -1.0910 h1         1 9VZ       0.048700
     22 H19         -5.1450     0.4970    -0.2680 h1         1 9VZ       0.048700
     23 H21         -1.0460    -0.1870     0.8830 hc         1 9VZ       0.080700
     24 H22         -0.3860     2.3030    -0.7370 hc         1 9VZ       0.060700
     25 H23         -1.2300     2.2990     0.8090 hc         1 9VZ       0.060700
     26 H24          1.3080     2.7240     0.9580 hc         1 9VZ       0.063700
     27 H25          0.7040     1.4460     2.0000 hc         1 9VZ       0.063700
     28 H28          5.5750    -0.5580     1.0560 hc         1 9VZ       0.058700
     29 H27          5.6030    -1.2190    -0.5880 hc         1 9VZ       0.058700
     30 H26          5.7930     0.5240    -0.3340 hc         1 9VZ       0.058700
@<TRIPOS>BOND
     1     1     7 1   
     2     1    15 1   
     3     1    16 1   
     4     1    17 1   
     5     2     3 1   
     6     2    18 1   
     7     2    19 1   
     8     2    20 1   
     9     3     4 1   
    10     3    21 1   
    11     3    22 1   
    12     4     5 1   
    13     5     6 2   
    14     5     7 1   
    15     7     8 1   
    16     7    23 1   
    17     8     9 1   
    18     8    24 1   
    19     8    25 1   
    20     9    10 1   
    21     9    26 1   
    22     9    27 1   
    23    10    11 1   
    24    10    15 2   
    25    11    12 2   
    26    12    13 1   
    27    12    14 1   
    28    13    28 1   
    29    13    29 1   
    30    13    30 1   
    31    14    15 1   
@<TRIPOS>SUBSTRUCTURE
     1 9VZ         1 TEMP              0 ****  ****    0 ROOT
