@<TRIPOS>MOLECULE
9VZ
   30    31     1     0     0
SMALL
abcg2


@<TRIPOS>ATOM
      1 C15         -0.3330    -0.4630    -0.3510 c6         1 9VZ       0.015900
      2 C01         -4.9240    -1.9080     0.5010 c3         1 9VZ      -0.098100
      3 C02         -4.5080    -0.5740    -0.0690 c3         1 9VZ       0.166600
      4 O03         -3.1190    -0.3780     0.2420 os         1 9VZ      -0.454100
      5 C04         -2.5290     0.7270    -0.1890 c          1 9VZ       0.594100
      6 O05         -3.0970     1.5830    -0.8200 o          1 9VZ      -0.486000
      7 C06         -1.0710     0.7660     0.2100 c6         1 9VZ      -0.118700
      8 C07         -0.3950     2.0630    -0.2240 c6         1 9VZ      -0.066400
      9 C08          1.0170     2.1660     0.3450 c6         1 9VZ      -0.104700
     10 C09          1.7590     0.8830     0.1610 cc         1 9VZ       0.288300
     11 N10          3.1190     0.8060     0.3070 nc         1 9VZ      -0.640000
     12 C11          3.5570    -0.3930     0.1040 cd         1 9VZ       0.451700
     13 C12          4.9860    -0.8030     0.1770 c3         1 9VZ      -0.130400
     14 S13          2.3100    -1.5350    -0.2830 ss         1 9VZ      -0.061400
     15 C14          1.1350    -0.2800    -0.1550 cd         1 9VZ      -0.227300
     16 H30         -0.6770    -1.3700     0.1480 hc         1 9VZ       0.064200
     17 H29         -0.5560    -0.5890    -1.4150 hc         1 9VZ       0.064200
     18 H18         -4.3600    -2.7280     0.0570 hc         1 9VZ       0.046700
     19 H17         -4.7940    -1.9410     1.5830 hc         1 9VZ       0.046700
     20 H16         -5.9800    -2.0740     0.2870 hc         1 9VZ       0.046700
     21 H20         -4.6490    -0.5520    -1.1510 h1         1 9VZ       0.048700
     22 H19         -5.0980     0.2360     0.3640 h1         1 9VZ       0.048700
     23 H21         -1.0360     0.7010     1.3050 hc         1 9VZ       0.080700
     24 H22         -0.3550     2.1070    -1.3160 hc         1 9VZ       0.060700
     25 H23         -0.9790     2.9230     0.1060 hc         1 9VZ       0.060700
     26 H24          1.5570     2.9810    -0.1410 hc         1 9VZ       0.063700
     27 H25          0.9770     2.4190     1.4100 hc         1 9VZ       0.063700
     28 H28          5.1360    -1.6030     0.9020 hc         1 9VZ       0.058700
     29 H27          5.3450    -1.1630    -0.7870 hc         1 9VZ       0.058700
     30 H26          5.5940     0.0500     0.4720 hc         1 9VZ       0.058700
@<TRIPOS>BOND
     1     1     7 1   
     2     1    15 1   
     3     1    16 1   
     4     1    17 1   
     5     2     3 1   
     6     2    18 1   
     7     2    19 1   
     8     2    20 1   
     9     3     4 1   
    10     3    21 1   
    11     3    22 1   
    12     4     5 1   
    13     5     6 2   
    14     5     7 1   
    15     7     8 1   
    16     7    23 1   
    17     8     9 1   
    18     8    24 1   
    19     8    25 1   
    20     9    10 1   
    21     9    26 1   
    22     9    27 1   
    23    10    11 1   
    24    10    15 2   
    25    11    12 2   
    26    12    13 1   
    27    12    14 1   
    28    13    28 1   
    29    13    29 1   
    30    13    30 1   
    31    14    15 1   
@<TRIPOS>SUBSTRUCTURE
     1 9VZ         1 TEMP              0 ****  ****    0 ROOT
