@<TRIPOS>MOLECULE
9W1
   51    54     1     0     0
SMALL
abcg2


@<TRIPOS>ATOM
      1 N1          -6.2180    -0.5890    -0.7410 nc         1 9W1      -0.301300
      2 N3          -7.7760     0.9830    -0.5410 nc         1 9W1      -0.439300
      3 C4           4.9600     0.7450     0.4500 ca         1 9W1      -0.190000
      4 C5           0.8030    -0.4120    -0.3460 ca         1 9W1      -0.243000
      5 C6           2.8430    -1.5310     0.1900 ca         1 9W1      -0.225000
      6 C7           4.2020     1.0520    -0.6740 ca         1 9W1       0.341000
      7 C8           2.2020    -0.3890    -0.3030 ca         1 9W1       0.371000
      8 C10         -5.7020     0.3850    -0.0640 cd         1 9W1       0.150500
      9 C13         -6.7080     1.4030     0.0740 cd         1 9W1       0.507900
     10 C15         -1.9810    -1.5790    -1.3410 c5         1 9W1      -0.089400
     11 C17         -2.0940    -0.4180     0.7380 c5         1 9W1       0.103000
     12 C1           6.1070     2.1620    -1.6270 ca         1 9W1      -0.043000
     13 C2           4.7830     1.7770    -1.7200 ca         1 9W1      -0.197000
     14 C3           6.8870     1.8340    -0.5230 ca         1 9W1      -0.223000
     15 C9           6.3030     1.1200     0.5200 ca         1 9W1       0.169100
     16 C11          0.1240    -1.5280     0.1130 ca         1 9W1       0.396300
     17 C12          2.0760    -2.6010     0.6260 ca         1 9W1       0.392300
     18 C14         -4.3510     0.4130     0.5490 c          1 9W1       0.539600
     19 C16         -3.4500    -1.2880    -1.0770 c5         1 9W1       0.107000
     20 C18         -1.3770    -1.5900     0.0660 c5         1 9W1      -0.139000
     21 C19          2.7330    -3.8330     1.1710 c3         1 9W1      -0.146400
     22 N2           0.7430    -2.6020     0.5990 nb         1 9W1      -0.707000
     23 N4          -3.4030    -0.4040     0.0900 n          1 9W1      -0.391800
     24 N5          -6.5900     2.6120     0.6590 nv         1 9W1      -1.030900
     25 N6           2.8540     0.7170    -0.7760 nu         1 9W1      -0.988000
     26 O1          -4.1660     1.1950     1.4780 o          1 9W1      -0.621100
     27 O2          -7.4580    -0.2440    -1.0370 os         1 9W1       0.113600
     28 O3           6.9470     0.7630     1.6470 os         1 9W1      -0.341100
     29 H2           0.2620     0.4420    -0.7360 ha         1 9W1       0.120000
     30 H3           3.9200    -1.6080     0.2180 ha         1 9W1       0.135000
     31 H4          -1.8390    -2.5210    -1.8690 hc         1 9W1       0.061200
     32 H5          -1.5370    -0.7830    -1.9420 hc         1 9W1       0.061200
     33 H6          -2.1890    -0.5550     1.8150 h1         1 9W1       0.064200
     34 H7          -1.5760     0.5290     0.5640 h1         1 9W1       0.064200
     35 H8           8.6150     0.7780     2.7740 h1         1 9W1       0.042033
     36 H9           8.9400     0.7210     1.0340 h1         1 9W1       0.042033
     37 H10          8.4130     2.2400     1.7920 h1         1 9W1       0.042033
     38 H11          6.5540     2.7230    -2.4370 ha         1 9W1       0.113000
     39 H12          4.1980     2.0330    -2.5940 ha         1 9W1       0.116000
     40 H13          7.9230     2.1410    -0.4950 ha         1 9W1       0.121000
     41 H14         -3.9380    -0.8070    -1.9230 h1         1 9W1       0.063200
     42 H15         -3.9940    -2.2040    -0.8430 h1         1 9W1       0.063200
     43 H16         -1.6770    -2.5160     0.5630 hc         1 9W1       0.087700
     44 H17          2.5650    -3.9100     2.2470 hc         1 9W1       0.052033
     45 H18          2.3120    -4.7300     0.7150 hc         1 9W1       0.052033
     46 H19          3.8080    -3.8320     1.0000 hc         1 9W1       0.052033
     47 H20         -5.8790     2.6930     1.3670 hn         1 9W1       0.493500
     48 H21         -7.4460     3.1040     0.8590 hn         1 9W1       0.493500
     49 H22          2.2950     1.3450    -1.3320 hn         1 9W1       0.496000
     50 H1           4.5180     0.2390     1.2990 ha         1 9W1       0.139000
     51 C20          8.2970     1.1530     1.8050 c3         1 9W1       0.148900
@<TRIPOS>BOND
     1     1     8 2   
     2     1    27 1   
     3     2     9 2   
     4     2    27 1   
     5     3     6 ar  
     6     3    15 ar  
     7     3    50 1   
     8     4     7 ar  
     9     4    16 ar  
    10     4    29 1   
    11     5     7 ar  
    12     5    17 ar  
    13     5    30 1   
    14     6    13 ar  
    15     6    25 1   
    16     7    25 1   
    17     8     9 1   
    18     8    18 1   
    19     9    24 1   
    20    10    19 1   
    21    10    20 1   
    22    10    31 1   
    23    10    32 1   
    24    11    20 1   
    25    11    23 1   
    26    11    33 1   
    27    11    34 1   
    28    12    13 ar  
    29    12    14 ar  
    30    12    38 1   
    31    13    39 1   
    32    14    15 ar  
    33    14    40 1   
    34    15    28 1   
    35    16    20 1   
    36    16    22 ar  
    37    17    21 1   
    38    17    22 ar  
    39    18    23 1   
    40    18    26 2   
    41    19    23 1   
    42    19    41 1   
    43    19    42 1   
    44    20    43 1   
    45    21    44 1   
    46    21    45 1   
    47    21    46 1   
    48    24    47 1   
    49    24    48 1   
    50    25    49 1   
    51    28    51 1   
    52    35    51 1   
    53    36    51 1   
    54    37    51 1   
@<TRIPOS>SUBSTRUCTURE
     1 9W1         1 TEMP              0 ****  ****    0 ROOT
