@<TRIPOS>MOLECULE
9W1
   51    54     1     0     0
SMALL
No Charge or Current Charge


@<TRIPOS>ATOM
      1 N1          -6.1490    -0.2230    -1.0340 nc         1 9W1      -0.301300
      2 N3          -7.8710     1.2530    -0.3060 nc         1 9W1      -0.439300
      3 C4           4.9300     0.7130     0.3670 ca         1 9W1      -0.190000
      4 C5           0.8550    -0.6260    -0.5500 ca         1 9W1      -0.243000
      5 C6           2.8620    -1.7520     0.1240 ca         1 9W1      -0.225000
      6 C7           4.2680     0.8650    -0.8610 ca         1 9W1       0.341000
      7 C8           2.2460    -0.6600    -0.4840 ca         1 9W1       0.371000
      8 C10         -5.6980     0.5840    -0.0840 cd         1 9W1       0.150500
      9 C13         -6.7500     1.4470     0.3260 cd         1 9W1       0.507900
     10 C15         -1.9510    -1.5640    -1.4660 c5         1 9W1      -0.089400
     11 C17         -1.9720    -0.3730     0.6290 c5         1 9W1       0.103000
     12 C1           6.1850     2.0890    -1.7320 ca         1 9W1      -0.043000
     13 C2           4.8930     1.5650    -1.9020 ca         1 9W1      -0.197000
     14 C3           6.8510     1.9210    -0.5070 ca         1 9W1      -0.223000
     15 C9           6.2190     1.2330     0.5500 ca         1 9W1       0.169100
     16 C11          0.1030    -1.6700     0.0220 ca         1 9W1       0.396300
     17 C12          2.0580    -2.7560     0.6680 ca         1 9W1       0.392300
     18 C14         -4.3130     0.5870     0.5140 c          1 9W1       0.539600
     19 C16         -3.4210    -1.1370    -1.2170 c5         1 9W1       0.107000
     20 C18         -1.4280    -1.6780    -0.0080 c5         1 9W1      -0.139000
     21 C19          2.6630    -3.9690     1.3470 c3         1 9W1      -0.146400
     22 N2           0.7110    -2.7150     0.6230 nb         1 9W1      -0.707000
     23 N4          -3.3100    -0.2840    -0.0030 n          1 9W1      -0.391800
     24 N5          -6.6980     2.4220     1.2750 nv         1 9W1      -1.030900
     25 N6           2.9800     0.3710    -1.0630 nu         1 9W1      -0.988000
     26 O1          -4.0220     1.3210     1.4560 o          1 9W1      -0.621100
     27 O2          -7.5120     0.1900    -1.1850 os         1 9W1       0.113600
     28 O3           6.8180     1.0490     1.7790 os         1 9W1      -0.341100
     29 H2           0.3620     0.2120    -1.0300 ha         1 9W1       0.120000
     30 H3           3.9410    -1.8380     0.1610 ha         1 9W1       0.135000
     31 H4          -1.8760    -2.5060    -2.0220 hc         1 9W1       0.061200
     32 H5          -1.4270    -0.7980    -2.0490 hc         1 9W1       0.061200
     33 H6          -2.0310    -0.4500     1.7230 h1         1 9W1       0.064200
     34 H7          -1.3770     0.5150     0.3790 h1         1 9W1       0.064200
     35 H8           8.4180     1.2880     3.1010 h1         1 9W1       0.042033
     36 H9           8.8790     1.0990     1.3970 h1         1 9W1       0.042033
     37 H10          8.1760     2.6350     1.9700 h1         1 9W1       0.042033
     38 H11          6.6670     2.6250    -2.5470 ha         1 9W1       0.113000
     39 H12          4.3830     1.6980    -2.8520 ha         1 9W1       0.116000
     40 H13          7.8490     2.3350    -0.3970 ha         1 9W1       0.121000
     41 H14         -3.8190    -0.5910    -2.0830 h1         1 9W1       0.063200
     42 H15         -4.0600    -2.0090    -1.0220 h1         1 9W1       0.063200
     43 H16         -1.8470    -2.5590     0.4920 hc         1 9W1       0.087700
     44 H17          2.4510    -3.9600     2.4220 hc         1 9W1       0.052033
     45 H18          2.2550    -4.8980     0.9300 hc         1 9W1       0.052033
     46 H19          3.7510    -4.0000     1.2220 hc         1 9W1       0.052033
     47 H20         -5.8790     2.4390     1.8830 hn         1 9W1       0.493500
     48 H21         -7.5730     2.7690     1.6570 hn         1 9W1       0.493500
     49 H22          2.4710     0.8660    -1.7950 hn         1 9W1       0.496000
     50 H1           4.4420     0.2100     1.1940 ha         1 9W1       0.139000
     51 C20          8.1370     1.5430     2.0720 c3         1 9W1       0.148900
@<TRIPOS>BOND
     1     1     8 2   
     2     1    27 1   
     3     2     9 2   
     4     2    27 1   
     5     3     6 ar  
     6     3    15 ar  
     7     3    50 1   
     8     4     7 ar  
     9     4    16 ar  
    10     4    29 1   
    11     5     7 ar  
    12     5    17 ar  
    13     5    30 1   
    14     6    13 ar  
    15     6    25 1   
    16     7    25 1   
    17     8     9 1   
    18     8    18 1   
    19     9    24 1   
    20    10    19 1   
    21    10    20 1   
    22    10    31 1   
    23    10    32 1   
    24    11    20 1   
    25    11    23 1   
    26    11    33 1   
    27    11    34 1   
    28    12    13 ar  
    29    12    14 ar  
    30    12    38 1   
    31    13    39 1   
    32    14    15 ar  
    33    14    40 1   
    34    15    28 1   
    35    16    20 1   
    36    16    22 ar  
    37    17    21 1   
    38    17    22 ar  
    39    18    23 1   
    40    18    26 2   
    41    19    23 1   
    42    19    41 1   
    43    19    42 1   
    44    20    43 1   
    45    21    44 1   
    46    21    45 1   
    47    21    46 1   
    48    24    47 1   
    49    24    48 1   
    50    25    49 1   
    51    28    51 1   
    52    35    51 1   
    53    36    51 1   
    54    37    51 1   
@<TRIPOS>SUBSTRUCTURE
     1 9W1         1 TEMP              0 ****  ****    0 ROOT
