@<TRIPOS>MOLECULE
9W2
   32    33     1     0     0
SMALL
No Charge or Current Charge


@<TRIPOS>ATOM
      1 C10         -1.0760     1.8310     0.4100 c6         1 9W2      -0.118900
      2 N12          2.9410     0.6420     0.9390 nb         1 9W2      -0.250000
      3 C13          4.2610     0.3880     1.0140 ca         1 9W2       0.153400
      4 C15          4.0800    -1.1250    -0.8350 ca         1 9W2       0.153400
      5 C01         -4.4280    -1.5830     1.3020 c3         1 9W2      -0.180100
      6 C02         -3.9420    -0.6310     0.2180 c          1 9W2       0.599100
      7 O03         -4.5650    -0.4330    -0.8140 o          1 9W2      -0.609100
      8 N04         -2.7460    -0.0090     0.4920 ns         1 9W2      -0.512900
      9 C05         -2.0560     0.9450    -0.3890 c6         1 9W2       0.118700
     10 C06         -1.2610     0.2180    -1.4960 c6         1 9W2      -0.118900
     11 C07         -0.0720    -0.5910    -0.9290 c6         1 9W2       0.222800
     12 N08          0.8400     0.2720    -0.1080 nh         1 9W2      -0.772300
     13 C09          0.1310     1.0380     0.9690 c6         1 9W2       0.222800
     14 C11          2.2380    -0.0010    -0.0210 ca         1 9W2       0.390900
     15 C14          4.8840    -0.5050     0.1310 ca         1 9W2      -0.289000
     16 N16          2.7590    -0.8740    -0.9130 nb         1 9W2      -0.250000
     17 H1          -0.7020     2.6330    -0.2410 hc         1 9W2       0.062700
     18 H2          -1.6050     2.3300     1.2330 hc         1 9W2       0.062700
     19 H3           4.8220     0.9080     1.7900 h4         1 9W2       0.018600
     20 H4           4.4940    -1.8290    -1.5550 h4         1 9W2       0.018600
     21 H5          -5.3820    -2.0590     1.0500 hc         1 9W2       0.059367
     22 H6          -3.6460    -2.3250     1.5020 hc         1 9W2       0.059367
     23 H7          -4.4840    -1.0430     2.2540 hc         1 9W2       0.059367
     24 H8          -2.3190    -0.2390     1.3810 hn         1 9W2       0.310500
     25 H9          -2.8150     1.5900    -0.8560 h1         1 9W2       0.075700
     26 H10         -1.9240    -0.4480    -2.0630 hc         1 9W2       0.062700
     27 H11         -0.8810     0.9560    -2.2150 hc         1 9W2       0.062700
     28 H12         -0.4540    -1.4230    -0.3180 h1         1 9W2       0.063700
     29 H13          0.4510    -1.0390    -1.7860 h1         1 9W2       0.063700
     30 H14          0.7950     1.7670     1.4550 h1         1 9W2       0.063700
     31 H15         -0.2130     0.3490     1.7540 h1         1 9W2       0.063700
     32 H16          5.9500    -0.7080     0.1930 ha         1 9W2       0.135000
@<TRIPOS>BOND
     1     1     9 1   
     2     1    13 1   
     3     1    17 1   
     4     1    18 1   
     5     2     3 ar  
     6     2    14 ar  
     7     3    15 ar  
     8     3    19 1   
     9     4    15 ar  
    10     4    16 ar  
    11     4    20 1   
    12     5     6 1   
    13     5    21 1   
    14     5    22 1   
    15     5    23 1   
    16     6     7 2   
    17     6     8 1   
    18     8     9 1   
    19     8    24 1   
    20     9    10 1   
    21     9    25 1   
    22    10    11 1   
    23    10    26 1   
    24    10    27 1   
    25    11    12 1   
    26    11    28 1   
    27    11    29 1   
    28    12    13 1   
    29    12    14 1   
    30    13    30 1   
    31    13    31 1   
    32    14    16 ar  
    33    15    32 1   
@<TRIPOS>SUBSTRUCTURE
     1 9W2         1 TEMP              0 ****  ****    0 ROOT
