@<TRIPOS>MOLECULE
9W2
   32    33     1     0     0
SMALL
bcc


@<TRIPOS>ATOM
      1 C10         -0.7770     1.4740     0.7250 c6         1 9W2      -0.118900
      2 N12          2.8940     0.6350     0.8810 nb         1 9W2      -0.776000
      3 C13          4.1820     0.7440     0.6070 ca         1 9W2       0.481700
      4 C15          3.9520    -0.7150    -1.2060 ca         1 9W2       0.481700
      5 C01         -4.8260    -1.0840     0.9650 c3         1 9W2      -0.180100
      6 C02         -3.9430    -0.3000     0.0260 c          1 9W2       0.666100
      7 O03         -4.3110     0.0040    -1.1010 o          1 9W2      -0.609100
      8 N04         -2.7400     0.0440     0.5160 ns         1 9W2      -0.579900
      9 C05         -1.7530     0.7990    -0.2380 c6         1 9W2       0.118700
     10 C06         -0.9860    -0.0930    -1.2200 c6         1 9W2      -0.118900
     11 C07         -0.0510    -1.0500    -0.4920 c6         1 9W2       0.222800
     12 N08          0.8540    -0.3160     0.3720 nh         1 9W2      -0.772300
     13 C09          0.1800     0.4800     1.3780 c6         1 9W2       0.222800
     14 C11          2.1690    -0.1670     0.0870 ca         1 9W2       0.916900
     15 C14          4.7930     0.0810    -0.4450 ca         1 9W2      -0.437600
     16 N16          2.6620    -0.8460    -0.9590 nb         1 9W2      -0.776000
     17 H1          -0.1930     2.2080     0.1640 hc         1 9W2       0.062700
     18 H2          -1.3230     2.0250     1.4960 hc         1 9W2       0.062700
     19 H3           4.7560     1.3950     1.2580 h4         1 9W2       0.018600
     20 H4           4.3360    -1.2720    -2.0550 h4         1 9W2       0.018600
     21 H5          -5.1050    -2.0270     0.4950 hc         1 9W2       0.059367
     22 H6          -4.3610    -1.3020     1.9240 hc         1 9W2       0.059367
     23 H7          -5.7460    -0.5290     1.1470 hc         1 9W2       0.059367
     24 H8          -2.5120    -0.2440     1.4530 hn         1 9W2       0.310500
     25 H9          -2.2840     1.5710    -0.8000 h1         1 9W2       0.075700
     26 H10         -1.6840    -0.6540    -1.8430 hc         1 9W2       0.062700
     27 H11         -0.4010     0.5440    -1.8900 hc         1 9W2       0.062700
     28 H12         -0.6280    -1.7480     0.1240 h1         1 9W2       0.063700
     29 H13          0.5200    -1.6440    -1.1980 h1         1 9W2       0.063700
     30 H14          0.9130     1.0060     1.9810 h1         1 9W2       0.063700
     31 H15         -0.3560    -0.1960     2.0540 h1         1 9W2       0.063700
     32 H16          5.8460     0.1800    -0.6580 ha         1 9W2       0.153000
@<TRIPOS>BOND
     1     1     9 1   
     2     1    13 1   
     3     1    17 1   
     4     1    18 1   
     5     2     3 ar  
     6     2    14 ar  
     7     3    15 ar  
     8     3    19 1   
     9     4    15 ar  
    10     4    16 ar  
    11     4    20 1   
    12     5     6 1   
    13     5    21 1   
    14     5    22 1   
    15     5    23 1   
    16     6     7 2   
    17     6     8 1   
    18     8     9 1   
    19     8    24 1   
    20     9    10 1   
    21     9    25 1   
    22    10    11 1   
    23    10    26 1   
    24    10    27 1   
    25    11    12 1   
    26    11    28 1   
    27    11    29 1   
    28    12    13 1   
    29    12    14 1   
    30    13    30 1   
    31    13    31 1   
    32    14    16 ar  
    33    15    32 1   
@<TRIPOS>SUBSTRUCTURE
     1 9W2         1 TEMP              0 ****  ****    0 ROOT
