@<TRIPOS>MOLECULE
9W3
   68    71     1     0     0
SMALL
No Charge or Current Charge


@<TRIPOS>ATOM
      1 C1         192.5260   -24.6930   144.8410 ca         1 9W3      -0.066800
      2 C2         192.2640   -26.6940   146.2310 ca         1 9W3      -0.065800
      3 C3         193.4280   -27.2290   145.6510 ca         1 9W3      -0.090000
      4 C4         194.1500   -26.5200   144.6720 ca         1 9W3      -0.066800
      5 C5         193.6870   -25.2450   144.2450 ca         1 9W3       0.293000
      6 C10        194.6540   -24.7780   141.9370 ca         1 9W3       0.450900
      7 C11        194.5820   -26.1340   140.1490 ca         1 9W3       0.456900
      8 C15        193.6170   -28.4990   139.9380 ca         1 9W3       0.339000
      9 C16        192.6430   -28.5180   140.9560 ca         1 9W3      -0.161000
     10 C17        192.0160   -29.7220   141.3250 ca         1 9W3      -0.042000
     11 C18        191.7130   -32.1530   141.0460 cg         1 9W3       0.329000
     12 C19        190.4050   -27.1670   147.9460 ce         1 9W3      -0.112700
     13 C20        191.5410   -27.4770   147.2550 cf         1 9W3      -0.097200
     14 C23        198.2290   -24.1150   138.4280 c3         1 9W3      -0.107400
     15 C24        199.1250   -24.3930   137.2030 c3         1 9W3       0.170800
     16 C25        201.2920   -24.5850   138.4450 c6         1 9W3       0.124800
     17 C26        202.5320   -25.4930   138.7010 c6         1 9W3       0.153100
     18 O2         203.1680   -25.8450   137.4490 os         1 9W3      -0.448000
     19 C6         191.9960   -23.3210   144.4240 c3         1 9W3      -0.049800
     20 C7         191.8260   -25.4210   145.8230 ca         1 9W3      -0.090000
     21 C8         195.4350   -27.1560   144.1380 c3         1 9W3      -0.049800
     22 C9         195.5450   -24.0870   139.9740 ca         1 9W3       0.440300
     23 C13        193.3110   -30.9060   139.6420 ca         1 9W3      -0.042000
     24 C14        193.9340   -29.6980   139.2780 ca         1 9W3      -0.161000
     25 C21        189.8040   -28.0220   148.9190 cg         1 9W3       0.272700
     26 C22        196.9180   -23.3950   138.0440 c3         1 9W3       0.174600
     27 C12        192.3520   -30.9220   140.6710 ca         1 9W3      -0.054000
     28 N1         195.2070   -25.2470   139.3700 nb         1 9W3      -0.387000
     29 N2         194.3610   -24.5060   143.2580 nu         1 9W3      -0.937900
     30 N01        195.2770   -23.8060   141.2630 nb         1 9W3      -0.320000
     31 N3         194.2780   -25.9590   141.4370 nb         1 9W3      -0.340000
     32 N4         194.2640   -27.3280   139.5340 nu         1 9W3      -0.921900
     33 N5         191.1930   -33.1560   141.3410 n1         1 9W3      -0.457000
     34 N6         189.3450   -28.7490   149.7070 n1         1 9W3      -0.450000
     35 N7         200.3230   -25.2180   137.4890 n3         1 9W3      -0.712600
     36 C27        202.2710   -26.5320   136.5450 c6         1 9W3       0.153100
     37 C28        201.0280   -25.6440   136.2390 c6         1 9W3       0.124800
     38 H1         193.7850   -28.2060   145.9690 ha         1 9W3       0.118500
     39 H2         192.3500   -27.6030   141.4580 ha         1 9W3       0.139500
     40 H3         191.2680   -29.7170   142.1150 ha         1 9W3       0.126000
     41 H4         189.8920   -26.2230   147.7770 ha         1 9W3       0.201000
     42 H5         191.9990   -28.4440   147.4790 ha         1 9W3       0.185000
     43 H6         197.9990   -25.0670   138.9190 hc         1 9W3       0.063700
     44 H7         198.7700   -23.4930   139.1500 hc         1 9W3       0.063700
     45 H8         199.4280   -23.4330   136.7610 h1         1 9W3       0.031200
     46 H9         198.5090   -24.9090   136.4530 h1         1 9W3       0.031200
     47 H11        200.8120   -24.3870   139.4130 h1         1 9W3       0.040950
     48 H12        202.2240   -26.4110   139.2220 h1         1 9W3       0.051700
     49 H13        203.2570   -24.9660   139.3370 h1         1 9W3       0.051700
     50 H14        191.8190   -23.2770   143.3420 hc         1 9W3       0.049700
     51 H15        191.0450   -23.0820   144.9150 hc         1 9W3       0.049700
     52 H16        192.7050   -22.5270   144.6850 hc         1 9W3       0.049700
     53 H17        190.9330   -24.9860   146.2620 ha         1 9W3       0.118500
     54 H18        196.1700   -26.4060   143.8240 hc         1 9W3       0.049700
     55 H19        195.9220   -27.7710   144.9040 hc         1 9W3       0.049700
     56 H20        195.2250   -27.8080   143.2820 hc         1 9W3       0.049700
     57 H21        193.5770   -31.8260   139.1240 ha         1 9W3       0.126000
     58 H22        194.6760   -29.7010   138.4840 ha         1 9W3       0.139500
     59 H23        197.1700   -22.4590   137.5270 h1         1 9W3       0.065200
     60 H24        196.3320   -24.0080   137.3460 h1         1 9W3       0.065200
     61 H25        194.4190   -23.5090   143.4550 hn         1 9W3       0.522000
     62 H26        194.6960   -27.3950   138.6150 hn         1 9W3       0.515000
     63 H28        201.9510   -27.4810   137.0000 h1         1 9W3       0.051700
     64 H29        202.8050   -26.7620   135.6120 h1         1 9W3       0.051700
     65 H30        201.3590   -24.7630   135.6690 h1         1 9W3       0.040950
     66 H31        200.3440   -26.2090   135.5890 h1         1 9W3       0.040950
     67 O1         196.1760   -23.1020   139.2470 os         1 9W3      -0.433300
     68 H10        201.6380   -23.6180   138.0520 h1         1 9W3       0.040950
@<TRIPOS>BOND
     1     1     5 ar  
     2     1    19 1   
     3     1    20 ar  
     4     2     3 ar  
     5     2    13 1   
     6     2    20 ar  
     7     3     4 ar  
     8     3    38 1   
     9     4     5 ar  
    10     4    21 1   
    11     5    29 1   
    12     6    29 1   
    13     6    30 ar  
    14     6    31 ar  
    15     7    28 ar  
    16     7    31 ar  
    17     7    32 1   
    18     8     9 ar  
    19     8    24 ar  
    20     8    32 1   
    21     9    10 ar  
    22     9    39 1   
    23    10    27 ar  
    24    10    40 1   
    25    11    27 1   
    26    11    33 3   
    27    12    13 2   
    28    12    25 1   
    29    12    41 1   
    30    13    42 1   
    31    14    15 1   
    32    14    26 1   
    33    14    43 1   
    34    14    44 1   
    35    15    35 1   
    36    15    45 1   
    37    15    46 1   
    38    16    17 1   
    39    16    35 1   
    40    16    47 1   
    41    16    68 1   
    42    17    18 1   
    43    17    48 1   
    44    17    49 1   
    45    18    36 1   
    46    19    50 1   
    47    19    51 1   
    48    19    52 1   
    49    20    53 1   
    50    21    54 1   
    51    21    55 1   
    52    21    56 1   
    53    22    28 ar  
    54    22    30 ar  
    55    22    67 1   
    56    23    24 ar  
    57    23    27 ar  
    58    23    57 1   
    59    24    58 1   
    60    25    34 3   
    61    26    59 1   
    62    26    60 1   
    63    26    67 1   
    64    29    61 1   
    65    32    62 1   
    66    35    37 1   
    67    36    37 1   
    68    36    63 1   
    69    36    64 1   
    70    37    65 1   
    71    37    66 1   
@<TRIPOS>SUBSTRUCTURE
     1 9W3         1 TEMP              0 ****  ****    0 ROOT
