@<TRIPOS>MOLECULE
9W3
   68    71     1     0     0
SMALL
bcc


@<TRIPOS>ATOM
      1 C1         192.3490   -24.8180   144.6720 ca         1 9W3      -0.066800
      2 C2         191.8460   -26.8240   145.9320 ca         1 9W3      -0.065800
      3 C3         193.1360   -27.2870   145.6820 ca         1 9W3      -0.108000
      4 C4         194.0540   -26.5450   144.9480 ca         1 9W3      -0.066800
      5 C5         193.6390   -25.3140   144.4340 ca         1 9W3       0.154600
      6 C10        194.9230   -24.8130   142.4240 ca         1 9W3       0.976900
      7 C11        194.9450   -26.1990   140.6740 ca         1 9W3       0.982900
      8 C15        193.8160   -28.4140   140.4380 ca         1 9W3       0.200600
      9 C16        193.2190   -28.5420   141.6980 ca         1 9W3      -0.179000
     10 C17        192.4650   -29.6620   141.9930 ca         1 9W3      -0.060000
     11 C18        191.5070   -31.8230   141.3640 cg         1 9W3       0.239800
     12 C19        189.7070   -27.3410   147.1050 ce         1 9W3      -0.062700
     13 C20        190.9560   -27.6560   146.7280 cf         1 9W3      -0.047200
     14 C23        198.6260   -24.3470   138.7050 c3         1 9W3      -0.107400
     15 C24        199.1500   -24.5940   137.2950 c3         1 9W3       0.170800
     16 C25        201.5180   -24.2570   137.6220 c6         1 9W3       0.124800
     17 C26        202.8720   -24.9400   137.5980 c6         1 9W3       0.129900
     18 O2         203.1370   -25.5330   136.3480 os         1 9W3      -0.401600
     19 C6         191.9270   -23.4910   144.1150 c3         1 9W3      -0.049800
     20 C7         191.4710   -25.5790   145.4250 ca         1 9W3      -0.108000
     21 C8         195.4440   -27.0670   144.7420 c3         1 9W3      -0.049800
     22 C9         196.0530   -24.2670   140.5830 ca         1 9W3       0.966300
     23 C13        192.8780   -30.5490   139.7910 ca         1 9W3      -0.060000
     24 C14        193.6310   -29.4350   139.4940 ca         1 9W3      -0.179000
     25 C21        188.9290   -28.2250   147.8940 cg         1 9W3       0.183500
     26 C22        197.2940   -23.6220   138.6540 c3         1 9W3       0.151400
     27 C12        192.2860   -30.6730   141.0500 ca         1 9W3      -0.054000
     28 N1         195.7330   -25.3880   139.9640 nb         1 9W3      -0.913000
     29 N2         194.5290   -24.5210   143.6770 nu         1 9W3      -0.744300
     30 N01        195.6960   -23.9190   141.8090 nb         1 9W3      -0.846000
     31 N3         194.5030   -25.9630   141.8950 nb         1 9W3      -0.866000
     32 N4         194.5960   -27.3450   140.0340 nu         1 9W3      -0.728300
     33 N5         190.8790   -32.7570   141.6150 n1         1 9W3      -0.367800
     34 N6         188.2760   -28.9230   148.5420 n1         1 9W3      -0.360800
     35 N7         200.4680   -25.2030   137.2810 n3         1 9W3      -0.712600
     36 C27        202.1270   -26.4560   136.0100 c6         1 9W3       0.129900
     37 C28        200.7590   -25.8030   135.9900 c6         1 9W3       0.124800
     38 H1         193.4410   -28.2460   146.0870 ha         1 9W3       0.136500
     39 H2         193.3420   -27.7730   142.4440 ha         1 9W3       0.157500
     40 H3         192.0110   -29.7470   142.9710 ha         1 9W3       0.144000
     41 H4         189.2270   -26.4070   146.8400 ha         1 9W3       0.151000
     42 H5         191.3630   -28.6130   147.0410 ha         1 9W3       0.135000
     43 H6         198.5180   -25.3060   139.2160 hc         1 9W3       0.063700
     44 H7         199.3310   -23.7460   139.2840 hc         1 9W3       0.063700
     45 H8         199.1380   -23.6540   136.7170 h1         1 9W3       0.031200
     46 H9         198.4610   -25.2740   136.7870 h1         1 9W3       0.031200
     47 H11        201.3550   -23.8570   138.6240 h1         1 9W3       0.040950
     48 H12        202.9130   -25.6940   138.3980 h1         1 9W3       0.051700
     49 H13        203.6600   -24.2090   137.7880 h1         1 9W3       0.051700
     50 H14        192.0600   -23.4510   143.0330 hc         1 9W3       0.049700
     51 H15        190.8790   -23.2970   144.3320 hc         1 9W3       0.049700
     52 H16        192.5090   -22.6710   144.5390 hc         1 9W3       0.049700
     53 H17        190.4760   -25.1890   145.6010 ha         1 9W3       0.136500
     54 H18        196.1880   -26.2740   144.8110 hc         1 9W3       0.049700
     55 H19        195.6830   -27.8220   145.4890 hc         1 9W3       0.049700
     56 H20        195.5500   -27.5280   143.7600 hc         1 9W3       0.049700
     57 H21        192.7480   -31.3230   139.0470 ha         1 9W3       0.144000
     58 H22        194.0860   -29.3510   138.5150 ha         1 9W3       0.157500
     59 H23        197.4150   -22.6370   138.2040 h1         1 9W3       0.065200
     60 H24        196.5630   -24.1760   138.0640 h1         1 9W3       0.065200
     61 H25        194.7390   -23.5870   144.0000 hn         1 9W3       0.466800
     62 H26        194.9730   -27.4090   139.0990 hn         1 9W3       0.459800
     63 H28        202.1200   -27.2950   136.7220 h1         1 9W3       0.051700
     64 H29        202.3660   -26.8570   135.0240 h1         1 9W3       0.051700
     65 H30        200.7180   -25.0620   135.1740 h1         1 9W3       0.040950
     66 H31        200.0080   -26.5660   135.7690 h1         1 9W3       0.040950
     67 O1         196.7880   -23.3630   139.9670 os         1 9W3      -0.410100
     68 H10        201.5260   -23.3980   136.9280 h1         1 9W3       0.040950
@<TRIPOS>BOND
     1     1     5 ar  
     2     1    19 1   
     3     1    20 ar  
     4     2     3 ar  
     5     2    13 1   
     6     2    20 ar  
     7     3     4 ar  
     8     3    38 1   
     9     4     5 ar  
    10     4    21 1   
    11     5    29 1   
    12     6    29 1   
    13     6    30 ar  
    14     6    31 ar  
    15     7    28 ar  
    16     7    31 ar  
    17     7    32 1   
    18     8     9 ar  
    19     8    24 ar  
    20     8    32 1   
    21     9    10 ar  
    22     9    39 1   
    23    10    27 ar  
    24    10    40 1   
    25    11    27 1   
    26    11    33 3   
    27    12    13 2   
    28    12    25 1   
    29    12    41 1   
    30    13    42 1   
    31    14    15 1   
    32    14    26 1   
    33    14    43 1   
    34    14    44 1   
    35    15    35 1   
    36    15    45 1   
    37    15    46 1   
    38    16    17 1   
    39    16    35 1   
    40    16    47 1   
    41    16    68 1   
    42    17    18 1   
    43    17    48 1   
    44    17    49 1   
    45    18    36 1   
    46    19    50 1   
    47    19    51 1   
    48    19    52 1   
    49    20    53 1   
    50    21    54 1   
    51    21    55 1   
    52    21    56 1   
    53    22    28 ar  
    54    22    30 ar  
    55    22    67 1   
    56    23    24 ar  
    57    23    27 ar  
    58    23    57 1   
    59    24    58 1   
    60    25    34 3   
    61    26    59 1   
    62    26    60 1   
    63    26    67 1   
    64    29    61 1   
    65    32    62 1   
    66    35    37 1   
    67    36    37 1   
    68    36    63 1   
    69    36    64 1   
    70    37    65 1   
    71    37    66 1   
@<TRIPOS>SUBSTRUCTURE
     1 9W3         1 TEMP              0 ****  ****    0 ROOT
