@<TRIPOS>MOLECULE
9W4
   51    55     1     0     0
SMALL
abcg2


@<TRIPOS>ATOM
      1 N3           0.3350    -0.7730    -0.3610 ns         1 9W4      -0.138000
      2 C4          -1.0560    -0.8270    -0.2030 ca         1 9W4      -0.033000
      3 C5          -1.5820    -2.0520     0.2360 ca         1 9W4      -0.154000
      4 C6          -2.9360    -2.2360     0.4250 ca         1 9W4      -0.050000
      5 C7          -3.8130    -1.1820     0.1770 ca         1 9W4       0.119400
      6 C15         -8.8760     1.7780     0.1250 c6         1 9W4       0.144100
      7 C17         -9.2320    -0.3750     0.9020 c6         1 9W4       0.144100
      8 C20          3.3620     0.6930    -1.7010 ca         1 9W4      -0.074500
      9 C21          4.7290     0.4770    -1.7670 ca         1 9W4      -0.095500
     10 C22          5.3400    -0.4520    -0.9340 ca         1 9W4      -0.102300
     11 C2           1.1090     0.2540    -0.7820 c          1 9W4       0.618700
     12 N8          -5.1770    -1.2170     0.3100 nc         1 9W4      -0.628100
     13 C9          -5.7040    -0.0740     0.0090 cd         1 9W4       0.642100
     14 S10         -4.5590     1.1750    -0.5030 ss         1 9W4      -0.024200
     15 C11         -3.2710     0.0350    -0.2560 ca         1 9W4      -0.171000
     16 C12         -1.9150     0.2410    -0.4540 ca         1 9W4      -0.084000
     17 N13         -7.0190     0.2080     0.0850 nh         1 9W4      -0.722600
     18 C14         -7.5760     1.3870    -0.5550 c6         1 9W4       0.177800
     19 O16         -9.7820     0.7030     0.1780 os         1 9W4      -0.442000
     20 C18         -7.9590    -0.8890     0.2590 c6         1 9W4       0.177800
     21 C19          2.5770    -0.0290    -0.8070 ca         1 9W4      -0.142600
     22 N24          7.5100    -0.0930     0.1450 n          1 9W4      -0.411400
     23 C25          7.9360    -0.7530     1.2650 c          1 9W4       0.424700
     24 O26          7.8540    -1.9230     1.5190 o          1 9W4      -0.458000
     25 C27          8.5320     0.3560     2.0990 cc         1 9W4       0.411200
     26 N28          8.4380     1.4830     1.5300 nd         1 9W4      -0.548100
     27 C29          7.7850     1.2560     0.2770 c          1 9W4       0.667400
     28 O30          7.5290     2.1090    -0.5180 o          1 9W4      -0.430000
     29 C31          4.5570    -1.1620    -0.0280 ca         1 9W4      -0.095500
     30 C32          3.1900    -0.9540     0.0370 ca         1 9W4      -0.074500
     31 H1           0.8030    -1.6470    -0.1790 hn         1 9W4       0.153000
     32 H2          -0.9070    -2.8770     0.4310 ha         1 9W4       0.110000
     33 H3          -3.3150    -3.1920     0.7630 ha         1 9W4       0.130000
     34 H4          -8.6580     2.1510     1.1350 h1         1 9W4       0.057200
     35 H5          -9.3470     2.5840    -0.4390 h1         1 9W4       0.057200
     36 H6          -9.0250    -0.0760     1.9390 h1         1 9W4       0.057200
     37 H7          -9.9740    -1.1720     0.9230 h1         1 9W4       0.057200
     38 H8           2.9040     1.4220    -2.3560 ha         1 9W4       0.128000
     39 H9           5.3260     1.0370    -2.4770 ha         1 9W4       0.127000
     40 H10         -1.5470     1.1950    -0.7940 ha         1 9W4       0.158000
     41 H11         -7.7440     1.2010    -1.6230 h1         1 9W4       0.062450
     42 H12         -6.8890     2.2300    -0.4670 h1         1 9W4       0.062450
     43 H13         -7.5130    -1.6500     0.8960 h1         1 9W4       0.062450
     44 H14         -8.1810    -1.3500    -0.7120 h1         1 9W4       0.062450
     45 H15          7.0560    -1.7460    -0.9930 h1         1 9W4       0.075200
     46 H16          7.2510    -0.2600    -1.9030 h1         1 9W4       0.075200
     47 H17          8.9850     0.1990     3.0710 h4         1 9W4       0.072800
     48 H18          5.0150    -1.8880     0.6340 ha         1 9W4       0.127000
     49 H19          2.6190    -1.5080     0.7720 ha         1 9W4       0.128000
     50 C23          6.8270    -0.6800    -0.9920 c3         1 9W4       0.169300
     51 O1           0.6720     1.3360    -1.1390 o          1 9W4      -0.579100
@<TRIPOS>BOND
     1     1     2 1   
     2     1    11 1   
     3     1    31 1   
     4     2     3 ar  
     5     2    16 ar  
     6     3     4 ar  
     7     3    32 1   
     8     4     5 ar  
     9     4    33 1   
    10     5    12 1   
    11     5    15 ar  
    12     6    18 1   
    13     6    19 1   
    14     6    34 1   
    15     6    35 1   
    16     7    19 1   
    17     7    20 1   
    18     7    36 1   
    19     7    37 1   
    20     8     9 ar  
    21     8    21 ar  
    22     8    38 1   
    23     9    10 ar  
    24     9    39 1   
    25    10    29 ar  
    26    10    50 1   
    27    11    21 1   
    28    11    51 2   
    29    12    13 2   
    30    13    14 1   
    31    13    17 1   
    32    14    15 1   
    33    15    16 ar  
    34    16    40 1   
    35    17    18 1   
    36    17    20 1   
    37    18    41 1   
    38    18    42 1   
    39    20    43 1   
    40    20    44 1   
    41    21    30 ar  
    42    22    23 1   
    43    22    27 1   
    44    22    50 1   
    45    23    24 2   
    46    23    25 1   
    47    25    26 2   
    48    25    47 1   
    49    26    27 1   
    50    27    28 2   
    51    29    30 ar  
    52    29    48 1   
    53    30    49 1   
    54    45    50 1   
    55    46    50 1   
@<TRIPOS>SUBSTRUCTURE
     1 9W4         1 TEMP              0 ****  ****    0 ROOT
