@<TRIPOS>MOLECULE
9W4
   51    55     1     0     0
SMALL
No Charge or Current Charge


@<TRIPOS>ATOM
      1 N3           0.3680    -0.6120    -0.3360 ns         1 9W4      -0.138000
      2 C4          -1.0360    -0.7090    -0.1260 ca         1 9W4      -0.033000
      3 C5          -1.5150    -1.8610     0.5380 ca         1 9W4      -0.154000
      4 C6          -2.8920    -2.0340     0.7860 ca         1 9W4      -0.050000
      5 C7          -3.8040    -1.0520     0.3700 ca         1 9W4       0.119400
      6 C15         -9.1370     1.6790    -0.1010 c6         1 9W4       0.144100
      7 C17         -9.4040    -0.4550     0.9650 c6         1 9W4       0.144100
      8 C20          3.5390     0.9990    -1.5550 ca         1 9W4      -0.074500
      9 C21          4.9240     0.7660    -1.5840 ca         1 9W4      -0.095500
     10 C22          5.4610    -0.4040    -1.0190 ca         1 9W4      -0.102300
     11 C2           1.1640     0.3550    -0.9430 c          1 9W4       0.618700
     12 N8          -5.1790    -1.1420     0.5740 nc         1 9W4      -0.628100
     13 C9          -5.7000    -0.0300     0.0440 cd         1 9W4       0.642100
     14 S10         -4.6220     1.1760    -0.7150 ss         1 9W4      -0.024200
     15 C11         -3.3290     0.0750    -0.2800 ca         1 9W4      -0.171000
     16 C12         -1.9640     0.2750    -0.5410 ca         1 9W4      -0.084000
     17 N13         -7.0920     0.1730     0.0960 nh         1 9W4      -0.722600
     18 C14         -7.7380     1.2950    -0.6650 c6         1 9W4       0.177800
     19 O16         -9.9710     0.5100     0.0510 os         1 9W4      -0.442000
     20 C18         -8.0210    -0.9540     0.4560 c6         1 9W4       0.177800
     21 C19          2.6570     0.0680    -0.9570 ca         1 9W4      -0.142600
     22 N24          7.6360    -0.1580     0.1670 n          1 9W4      -0.411400
     23 C25          7.8560    -0.9210     1.3030 c          1 9W4       0.424700
     24 O26          7.5580    -2.0960     1.4860 o          1 9W4      -0.458000
     25 C27          8.5220     0.0630     2.1770 cc         1 9W4       0.411200
     26 N28          8.6610     1.2490     1.5990 nd         1 9W4      -0.548100
     27 C29          8.1040     1.1400     0.3180 c          1 9W4       0.667400
     28 O30          8.0490     2.0360    -0.5050 o          1 9W4      -0.430000
     29 C31          4.5950    -1.3360    -0.4200 ca         1 9W4      -0.095500
     30 C32          3.2090    -1.1070    -0.3870 ca         1 9W4      -0.074500
     31 H1           0.8850    -1.4010     0.0270 hn         1 9W4       0.153000
     32 H2          -0.8180    -2.6290     0.8650 ha         1 9W4       0.110000
     33 H3          -3.2480    -2.9250     1.2980 ha         1 9W4       0.130000
     34 H4          -9.0220     2.1700     0.8770 h1         1 9W4       0.057200
     35 H5          -9.6300     2.3890    -0.7800 h1         1 9W4       0.057200
     36 H6          -9.2900     0.0090     1.9560 h1         1 9W4       0.057200
     37 H7         -10.0920    -1.3050     1.0660 h1         1 9W4       0.057200
     38 H8           3.1530     1.9140    -2.0010 ha         1 9W4       0.128000
     39 H9           5.5800     1.5000    -2.0480 ha         1 9W4       0.127000
     40 H10         -1.6550     1.1810    -1.0540 ha         1 9W4       0.158000
     41 H11         -7.8490     1.0120    -1.7220 h1         1 9W4       0.062450
     42 H12         -7.1160     2.2010    -0.6390 h1         1 9W4       0.062450
     43 H13         -7.5890    -1.5880     1.2430 h1         1 9W4       0.062450
     44 H14         -8.1790    -1.5970    -0.4210 h1         1 9W4       0.062450
     45 H15          7.1510    -1.7300    -1.1480 h1         1 9W4       0.075200
     46 H16          7.4010    -0.1670    -1.9250 h1         1 9W4       0.075200
     47 H17          8.8520    -0.1770     3.1770 h4         1 9W4       0.072800
     48 H18          4.9980    -2.2430     0.0260 ha         1 9W4       0.127000
     49 H19          2.5810    -1.8570     0.0870 ha         1 9W4       0.128000
     50 C23          6.9620    -0.6530    -1.0440 c3         1 9W4       0.169300
     51 O1           0.7120     1.3800    -1.4420 o          1 9W4      -0.579100
@<TRIPOS>BOND
     1     1     2 1   
     2     1    11 1   
     3     1    31 1   
     4     2     3 ar  
     5     2    16 ar  
     6     3     4 ar  
     7     3    32 1   
     8     4     5 ar  
     9     4    33 1   
    10     5    12 1   
    11     5    15 ar  
    12     6    18 1   
    13     6    19 1   
    14     6    34 1   
    15     6    35 1   
    16     7    19 1   
    17     7    20 1   
    18     7    36 1   
    19     7    37 1   
    20     8     9 ar  
    21     8    21 ar  
    22     8    38 1   
    23     9    10 ar  
    24     9    39 1   
    25    10    29 ar  
    26    10    50 1   
    27    11    21 1   
    28    11    51 2   
    29    12    13 2   
    30    13    14 1   
    31    13    17 1   
    32    14    15 1   
    33    15    16 ar  
    34    16    40 1   
    35    17    18 1   
    36    17    20 1   
    37    18    41 1   
    38    18    42 1   
    39    20    43 1   
    40    20    44 1   
    41    21    30 ar  
    42    22    23 1   
    43    22    27 1   
    44    22    50 1   
    45    23    24 2   
    46    23    25 1   
    47    25    26 2   
    48    25    47 1   
    49    26    27 1   
    50    27    28 2   
    51    29    30 ar  
    52    29    48 1   
    53    30    49 1   
    54    45    50 1   
    55    46    50 1   
@<TRIPOS>SUBSTRUCTURE
     1 9W4         1 TEMP              0 ****  ****    0 ROOT
