@<TRIPOS>MOLECULE
9W5
   27    28     1     0     0
SMALL
abcg2


@<TRIPOS>ATOM
      1 C10          3.6140     0.8040     0.0460 ca         1 9W5      -0.111000
      2 C13          1.4770    -0.9560     0.2110 ca         1 9W5      -0.090500
      3 C02         -2.7880    -0.8090     0.1030 cc         1 9W5       0.287300
      4 C03         -2.6830     0.3650     0.8740 cc         1 9W5      -0.298000
      5 C04         -1.5670     1.0100     0.3740 cd         1 9W5       0.221000
      6 N05         -0.9310     2.1580     0.7800 nv         1 9W5      -1.043000
      7 N06         -1.0920     0.2370    -0.6240 na         1 9W5       0.091800
      8 C07          0.1140     0.4430    -1.3830 c3         1 9W5       0.135900
      9 C08          1.3690     0.1810    -0.5870 ca         1 9W5      -0.111300
     10 C09          2.4450     1.0570    -0.6610 ca         1 9W5      -0.090500
     11 C11          3.7140    -0.3280     0.8420 ca         1 9W5      -0.102000
     12 C12          2.6400    -1.2070     0.9230 ca         1 9W5      -0.111000
     13 N14         -1.8280    -0.8830    -0.7950 nd         1 9W5      -0.537800
     14 H1           4.4440     1.4970    -0.0220 ha         1 9W5       0.113500
     15 H2           0.6480    -1.6510     0.2760 ha         1 9W5       0.117000
     16 H3          -4.8260    -1.4760     0.0660 hc         1 9W5       0.046033
     17 H4          -3.6570    -2.6540    -0.5330 hc         1 9W5       0.046033
     18 H5          -3.8070    -2.3470     1.1980 hc         1 9W5       0.046033
     19 H6          -3.3280     0.7040     1.6690 ha         1 9W5       0.143000
     20 H7          -1.5140     2.7570     1.3430 hn         1 9W5       0.447500
     21 H8          -0.4850     2.6920     0.0510 hn         1 9W5       0.447500
     22 H9           0.0590    -0.2310    -2.2390 h1         1 9W5       0.066700
     23 H10          0.1310     1.4570    -1.7910 h1         1 9W5       0.066700
     24 H11          2.3730     1.9480    -1.2750 ha         1 9W5       0.117000
     25 H12          4.6220    -0.5240     1.3980 ha         1 9W5       0.112000
     26 H13          2.7110    -2.0940     1.5400 ha         1 9W5       0.113500
     27 C01         -3.8220    -1.8780     0.2120 c3         1 9W5      -0.121400
@<TRIPOS>BOND
     1     1    10 ar  
     2     1    11 ar  
     3     1    14 1   
     4     2     9 ar  
     5     2    12 ar  
     6     2    15 1   
     7     3     4 1   
     8     3    13 2   
     9     3    27 1   
    10     4     5 2   
    11     4    19 1   
    12     5     6 1   
    13     5     7 1   
    14     6    20 1   
    15     6    21 1   
    16     7     8 1   
    17     7    13 1   
    18     8     9 1   
    19     8    22 1   
    20     8    23 1   
    21     9    10 ar  
    22    10    24 1   
    23    11    12 ar  
    24    11    25 1   
    25    12    26 1   
    26    16    27 1   
    27    17    27 1   
    28    18    27 1   
@<TRIPOS>SUBSTRUCTURE
     1 9W5         1 TEMP              0 ****  ****    0 ROOT
