@<TRIPOS>MOLECULE
9W5
   27    28     1     0     0
SMALL
No Charge or Current Charge


@<TRIPOS>ATOM
      1 C10          3.6780     0.9250    -0.0840 ca         1 9W5      -0.111000
      2 C13          1.5800    -0.9040     0.2980 ca         1 9W5      -0.090500
      3 C02         -2.9070    -0.8240    -0.0140 cc         1 9W5       0.287300
      4 C03         -2.7520     0.3120     0.7940 cc         1 9W5      -0.298000
      5 C04         -1.6050     0.9030     0.4040 cd         1 9W5       0.221000
      6 N05         -1.0020     2.0380     0.8740 nv         1 9W5      -1.043000
      7 N06         -1.1060     0.0970    -0.6350 na         1 9W5       0.091800
      8 C07          0.1270     0.3170    -1.4180 c3         1 9W5       0.135900
      9 C08          1.4220     0.1560    -0.6200 ca         1 9W5      -0.111300
     10 C09          2.4820     1.0660    -0.8100 ca         1 9W5      -0.090500
     11 C11          3.8250    -0.1290     0.8330 ca         1 9W5      -0.102000
     12 C12          2.7760    -1.0430     1.0230 ca         1 9W5      -0.111000
     13 N14         -1.9380    -0.9930    -0.8940 nd         1 9W5      -0.537800
     14 H1           4.4910     1.6320    -0.2340 ha         1 9W5       0.113500
     15 H2           0.7780    -1.6230     0.4510 ha         1 9W5       0.117000
     16 H3          -5.0190    -1.2170    -0.0600 hc         1 9W5       0.046033
     17 H4          -4.0180    -2.5810    -0.5930 hc         1 9W5       0.046033
     18 H5          -4.1200    -2.1780     1.1310 hc         1 9W5       0.046033
     19 H6          -3.4310     0.6330     1.5740 ha         1 9W5       0.143000
     20 H7          -1.3580     2.4790     1.7210 hn         1 9W5       0.447500
     21 H8          -0.0330     2.2340     0.6270 hn         1 9W5       0.447500
     22 H9           0.1400    -0.3880    -2.2580 h1         1 9W5       0.066700
     23 H10          0.0780     1.3270    -1.8430 h1         1 9W5       0.066700
     24 H11          2.3820     1.8850    -1.5190 ha         1 9W5       0.117000
     25 H12          4.7510    -0.2380     1.3940 ha         1 9W5       0.112000
     26 H13          2.8900    -1.8620     1.7300 ha         1 9W5       0.113500
     27 C01         -4.0790    -1.7520     0.1220 c3         1 9W5      -0.121400
@<TRIPOS>BOND
     1     1    10 ar  
     2     1    11 ar  
     3     1    14 1   
     4     2     9 ar  
     5     2    12 ar  
     6     2    15 1   
     7     3     4 1   
     8     3    13 2   
     9     3    27 1   
    10     4     5 2   
    11     4    19 1   
    12     5     6 1   
    13     5     7 1   
    14     6    20 1   
    15     6    21 1   
    16     7     8 1   
    17     7    13 1   
    18     8     9 1   
    19     8    22 1   
    20     8    23 1   
    21     9    10 ar  
    22    10    24 1   
    23    11    12 ar  
    24    11    25 1   
    25    12    26 1   
    26    16    27 1   
    27    17    27 1   
    28    18    27 1   
@<TRIPOS>SUBSTRUCTURE
     1 9W5         1 TEMP              0 ****  ****    0 ROOT
