@<TRIPOS>MOLECULE
9W6
   37    39     1     0     0
SMALL
abcg2


@<TRIPOS>ATOM
      1 N            3.6580    -0.4470    -0.0080 ns         1 9W6      -0.461500
      2 C            7.6970    -2.5410     0.1210 c3         1 9W6      -0.100100
      3 O            5.4940    -1.6520     0.0230 os         1 9W6      -0.471100
      4 C1           6.2400    -2.8770    -0.0740 c3         1 9W6       0.184600
      5 C10         -4.8240    -0.6330     0.0100 ca         1 9W6      -0.177000
      6 C11         -6.0820    -1.2210     0.0240 ca         1 9W6      -0.128000
      7 C12         -6.1140    -2.6010     0.0580 ca         1 9W6       0.350900
      8 C13         -3.8360    -2.8280     0.0610 ca         1 9W6       0.415900
      9 C14         -3.6760    -1.4400     0.0270 ca         1 9W6       0.023400
     10 C2           4.1760    -1.7280    -0.0820 c          1 9W6       0.646100
     11 C3           2.3250    -0.1130    -0.0350 c          1 9W6       0.667700
     12 C4           2.0400     1.3280    -0.0260 cc         1 9W6      -0.269600
     13 C5           2.9890     2.3970    -0.0250 cc         1 9W6      -0.081000
     14 C6           2.4100     3.6180    -0.0240 cd         1 9W6      -0.291000
     15 C7           0.7430     1.8100    -0.0260 cd         1 9W6      -0.008400
     16 C8          -1.6480     1.5390    -0.0280 c          1 9W6       0.544800
     17 C9          -2.7070     0.5060    -0.0140 cc         1 9W6       0.293200
     18 N1          -0.3930     1.0450    -0.0260 ns         1 9W6      -0.349100
     19 N2          -5.0270    -3.3860     0.0750 nb         1 9W6      -0.667000
     20 N3          -2.4900    -0.7600     0.0130 nd         1 9W6      -0.481100
     21 O1           3.5450    -2.7400    -0.2240 o          1 9W6      -0.471000
     22 O2           1.4400    -0.9510    -0.0640 o          1 9W6      -0.564100
     23 O3          -1.9230     2.7240    -0.0360 o          1 9W6      -0.570100
     24 S            0.6920     3.5300    -0.0240 ss         1 9W6       0.316000
     25 S1          -4.3640     1.0270    -0.0260 ss         1 9W6       0.169800
     26 H1           4.3380     0.2940     0.0680 hn         1 9W6       0.334500
     27 H2           7.8840    -2.1190     1.1080 hc         1 9W6       0.049033
     28 H3           8.2860    -3.4530     0.0310 hc         1 9W6       0.049033
     29 H4           8.0530    -1.8390    -0.6330 hc         1 9W6       0.049033
     30 H5           6.0700    -3.3280    -1.0540 h1         1 9W6       0.052700
     31 H6           5.8960    -3.5790     0.6870 h1         1 9W6       0.052700
     32 H7          -6.9950    -0.6420     0.0100 ha         1 9W6       0.136000
     33 H8          -7.0690    -3.1110     0.0710 h4         1 9W6       0.025100
     34 H9          -2.9670    -3.4770     0.0760 h4         1 9W6       0.046100
     35 H10          4.0620     2.2780    -0.0310 ha         1 9W6       0.130000
     36 H11          2.8980     4.5800    -0.0260 h4         1 9W6       0.156000
     37 H12         -0.2460     0.0370    -0.0270 hn         1 9W6       0.394500
@<TRIPOS>BOND
     1     1    10 1   
     2     1    11 1   
     3     1    26 1   
     4     2     4 1   
     5     2    27 1   
     6     2    28 1   
     7     2    29 1   
     8     3     4 1   
     9     3    10 1   
    10     4    30 1   
    11     4    31 1   
    12     5     6 ar  
    13     5     9 ar  
    14     5    25 1   
    15     6     7 ar  
    16     6    32 1   
    17     7    19 ar  
    18     7    33 1   
    19     8     9 ar  
    20     8    19 ar  
    21     8    34 1   
    22     9    20 1   
    23    10    21 2   
    24    11    12 1   
    25    11    22 2   
    26    12    13 1   
    27    12    15 2   
    28    13    14 2   
    29    13    35 1   
    30    14    24 1   
    31    14    36 1   
    32    15    18 1   
    33    15    24 1   
    34    16    17 1   
    35    16    18 1   
    36    16    23 2   
    37    17    20 2   
    38    17    25 1   
    39    18    37 1   
@<TRIPOS>SUBSTRUCTURE
     1 9W6         1 TEMP              0 ****  ****    0 ROOT
