@<TRIPOS>MOLECULE
9W6
   37    39     1     0     0
SMALL
No Charge or Current Charge


@<TRIPOS>ATOM
      1 N            3.5000    -0.5540    -0.0030 ns         1 9W6      -0.461500
      2 C            7.6690    -2.4370    -0.0010 c3         1 9W6      -0.100100
      3 O            5.4000    -1.6620    -0.0020 os         1 9W6      -0.471100
      4 C1           6.1920    -2.8620    -0.0000 c3         1 9W6       0.184600
      5 C10         -4.7840    -0.6820     0.0020 ca         1 9W6      -0.177000
      6 C11         -6.0370    -1.3150     0.0040 ca         1 9W6      -0.128000
      7 C12         -6.0670    -2.7250     0.0070 ca         1 9W6       0.350900
      8 C13         -3.7410    -2.8480     0.0060 ca         1 9W6       0.415900
      9 C14         -3.6290    -1.4350     0.0030 ca         1 9W6       0.023400
     10 C2           4.0440    -1.7970    -0.0010 c          1 9W6       0.646100
     11 C3           2.1940    -0.1620    -0.0030 c          1 9W6       0.667700
     12 C4           2.0050     1.3210    -0.0060 cc         1 9W6      -0.269600
     13 C5           3.0750     2.2720    -0.0080 cc         1 9W6      -0.081000
     14 C6           2.6710     3.5810    -0.0100 cd         1 9W6      -0.291000
     15 C7           0.7690     1.9410    -0.0060 cd         1 9W6      -0.008400
     16 C8          -1.7330     1.6980    -0.0040 c          1 9W6       0.544800
     17 C9          -2.7480     0.6000    -0.0010 cc         1 9W6       0.293200
     18 N1          -0.4270     1.2290    -0.0040 ns         1 9W6      -0.349100
     19 N2          -4.9430    -3.4900     0.0080 nb         1 9W6      -0.667000
     20 N3          -2.4340    -0.7160     0.0010 nd         1 9W6      -0.481100
     21 O1           3.4360    -2.8550     0.0010 o          1 9W6      -0.471000
     22 O2           1.2670    -0.9600    -0.0010 o          1 9W6      -0.564100
     23 O3          -2.0100     2.8930    -0.0060 o          1 9W6      -0.570100
     24 S            0.9070     3.7190    -0.0090 ss         1 9W6       0.316000
     25 S1          -4.4710     1.0460    -0.0010 ss         1 9W6       0.169800
     26 H1           4.1760     0.1880    -0.0050 hn         1 9W6       0.334500
     27 H2           7.8990    -1.8400     0.8880 hc         1 9W6       0.049033
     28 H3           8.3170    -3.3210    -0.0000 hc         1 9W6       0.049033
     29 H4           7.8980    -1.8430    -0.8930 hc         1 9W6       0.049033
     30 H5           5.9850    -3.4710    -0.8910 h1         1 9W6       0.052700
     31 H6           5.9850    -3.4680     0.8920 h1         1 9W6       0.052700
     32 H7          -6.9630    -0.7450     0.0040 ha         1 9W6       0.136000
     33 H8          -7.0160    -3.2580     0.0090 h4         1 9W6       0.025100
     34 H9          -2.8510    -3.4760     0.0060 h4         1 9W6       0.046100
     35 H10          4.1260     1.9960    -0.0080 ha         1 9W6       0.130000
     36 H11          3.2840     4.4740    -0.0120 h4         1 9W6       0.156000
     37 H12         -0.3690     0.2110    -0.0020 hn         1 9W6       0.394500
@<TRIPOS>BOND
     1     1    10 1   
     2     1    11 1   
     3     1    26 1   
     4     2     4 1   
     5     2    27 1   
     6     2    28 1   
     7     2    29 1   
     8     3     4 1   
     9     3    10 1   
    10     4    30 1   
    11     4    31 1   
    12     5     6 ar  
    13     5     9 ar  
    14     5    25 1   
    15     6     7 ar  
    16     6    32 1   
    17     7    19 ar  
    18     7    33 1   
    19     8     9 ar  
    20     8    19 ar  
    21     8    34 1   
    22     9    20 1   
    23    10    21 2   
    24    11    12 1   
    25    11    22 2   
    26    12    13 1   
    27    12    15 2   
    28    13    14 2   
    29    13    35 1   
    30    14    24 1   
    31    14    36 1   
    32    15    18 1   
    33    15    24 1   
    34    16    17 1   
    35    16    18 1   
    36    16    23 2   
    37    17    20 2   
    38    17    25 1   
    39    18    37 1   
@<TRIPOS>SUBSTRUCTURE
     1 9W6         1 TEMP              0 ****  ****    0 ROOT
