@<TRIPOS>MOLECULE
9W7
   32    33     1     0     0
SMALL
bcc


@<TRIPOS>ATOM
      1 C            6.3480    -0.2300    -0.3810 c3         1 9W7      -0.087100
      2 F            4.1500    -0.5440     2.1450 f          1 9W7      -0.135900
      3 N           -4.6800    -1.5270    -0.0030 no         1 9W7       0.323200
      4 O            0.9970     0.4520    -2.1870 oh         1 9W7      -0.474100
      5 CL          -2.0920     2.8970     0.2410 cl         1 9W7      -0.061400
      6 C1           5.2410    -1.2830    -0.3640 c3         1 9W7      -0.031100
      7 O1           0.1680     1.1630     0.2710 os         1 9W7      -0.206200
      8 C2           3.8790    -0.6730    -0.1900 ca         1 9W7      -0.059300
      9 O2          -4.6790    -2.7350    -0.0490 o          1 9W7      -0.211000
     10 C3           3.0660    -0.4100    -1.2890 ca         1 9W7      -0.196000
     11 O3          -5.6830    -0.8520    -0.0060 o          1 9W7      -0.211000
     12 C4           1.8170     0.1870    -1.1570 ca         1 9W7       0.124100
     13 C5           1.3770     0.5240     0.1210 ca         1 9W7       0.061100
     14 C6          -0.9650     0.4510     0.1860 ca         1 9W7       0.200100
     15 C7          -1.0150    -0.9380     0.1350 ca         1 9W7      -0.213000
     16 C8          -2.2310    -1.5900     0.0730 ca         1 9W7      -0.024000
     17 C9          -3.4020    -0.8480     0.0610 ca         1 9W7      -0.216200
     18 C10         -3.3780     0.5390     0.1130 ca         1 9W7      -0.026000
     19 C11         -2.1600     1.1790     0.1740 ca         1 9W7      -0.028600
     20 C12          2.1570     0.2760     1.2340 ca         1 9W7      -0.127000
     21 C13          3.3930    -0.3120     1.0560 ca         1 9W7       0.106900
     22 H            6.3760     0.3350     0.5510 hc         1 9W7       0.040700
     23 HA           7.3230    -0.7000    -0.5130 hc         1 9W7       0.040700
     24 HB           6.2020     0.4770    -1.1990 hc         1 9W7       0.040700
     25 HO           1.3940     0.1670    -3.0180 ho         1 9W7       0.435000
     26 H1           5.2580    -1.8410    -1.3020 hc         1 9W7       0.055200
     27 H1A          5.4340    -2.0090     0.4270 hc         1 9W7       0.055200
     28 H3           3.4210    -0.6780    -2.2780 ha         1 9W7       0.142000
     29 H7          -0.1080    -1.5250     0.1550 ha         1 9W7       0.157000
     30 H8          -2.2490    -2.6690     0.0380 ha         1 9W7       0.171000
     31 H10         -4.2890     1.1210     0.1040 ha         1 9W7       0.184000
     32 H12          1.8040     0.5420     2.2230 ha         1 9W7       0.172000
@<TRIPOS>BOND
     1     1     6 1   
     2     1    22 1   
     3     1    23 1   
     4     1    24 1   
     5     2    21 1   
     6     3     9 1   
     7     3    11 1   
     8     3    17 1   
     9     4    12 1   
    10     4    25 1   
    11     5    19 1   
    12     6     8 1   
    13     6    26 1   
    14     6    27 1   
    15     7    13 1   
    16     7    14 1   
    17     8    10 ar  
    18     8    21 ar  
    19    10    12 ar  
    20    10    28 1   
    21    12    13 ar  
    22    13    20 ar  
    23    14    15 ar  
    24    14    19 ar  
    25    15    16 ar  
    26    15    29 1   
    27    16    17 ar  
    28    16    30 1   
    29    17    18 ar  
    30    18    19 ar  
    31    18    31 1   
    32    20    21 ar  
    33    20    32 1   
@<TRIPOS>SUBSTRUCTURE
     1 9W7         1 TEMP              0 ****  ****    0 ROOT
