@<TRIPOS>MOLECULE
9W7
   32    33     1     0     0
SMALL
No Charge or Current Charge


@<TRIPOS>ATOM
      1 C            6.3880    -0.1960    -0.6440 c3         1 9W7      -0.087100
      2 F            4.4380    -0.4520     2.1910 f          1 9W7      -0.171000
      3 N           -4.7950    -1.5270    -0.3430 no         1 9W7       0.703200
      4 O            0.8970     0.3590    -1.9840 oh         1 9W7      -0.513100
      5 Cl          -2.0920     2.9590     0.1630 cl         1 9W7      -0.153000
      6 C1           5.2950    -1.2630    -0.4450 c3         1 9W7      -0.031100
      7 O1           0.1850     1.0690     0.6730 os         1 9W7      -0.206200
      8 C2           3.9320    -0.6440    -0.1460 ca         1 9W7      -0.059300
      9 O2          -4.8290    -2.7640    -0.3310 o          1 9W7      -0.401000
     10 C3           3.0170    -0.4290    -1.1970 ca         1 9W7      -0.178000
     11 O3          -5.7850    -0.8170    -0.5630 o          1 9W7      -0.401000
     12 C4           1.7580     0.1440    -0.9420 ca         1 9W7       0.124100
     13 C5           1.4060     0.5030     0.3820 ca         1 9W7       0.061100
     14 C6          -1.0120     0.4300     0.4180 ca         1 9W7       0.200100
     15 C7          -1.0980    -0.9770     0.4310 ca         1 9W7      -0.195000
     16 C8          -2.3250    -1.6160     0.1820 ca         1 9W7      -0.006000
     17 C9          -3.4860    -0.8520    -0.0770 ca         1 9W7      -0.216200
     18 C10         -3.3960     0.5610    -0.0790 ca         1 9W7      -0.008000
     19 C11         -2.1670     1.1960     0.1710 ca         1 9W7       0.063000
     20 C12          2.3210     0.3050     1.4290 ca         1 9W7      -0.109000
     21 C13          3.5750    -0.2680     1.1670 ca         1 9W7       0.142000
     22 H            6.5030     0.4140     0.2590 hc         1 9W7       0.040700
     23 HA           7.3520    -0.6710    -0.8630 hc         1 9W7       0.040700
     24 HB           6.1330     0.4670    -1.4800 hc         1 9W7       0.040700
     25 HO           1.3260     0.0590    -2.8130 ho         1 9W7       0.474000
     26 H1           5.2400    -1.8860    -1.3470 hc         1 9W7       0.055200
     27 H1A          5.5960    -1.9370     0.3660 hc         1 9W7       0.055200
     28 H3           3.2920    -0.7060    -2.2120 ha         1 9W7       0.124000
     29 H7          -0.2170    -1.5790     0.6370 ha         1 9W7       0.139000
     30 H8          -2.3630    -2.7050     0.1950 ha         1 9W7       0.153000
     31 H10         -4.2720     1.1780    -0.2710 ha         1 9W7       0.166000
     32 H12          2.0570     0.5900     2.4430 ha         1 9W7       0.154000
@<TRIPOS>BOND
     1     1     6 1   
     2     1    22 1   
     3     1    23 1   
     4     1    24 1   
     5     2    21 1   
     6     3     9 1   
     7     3    11 1   
     8     3    17 1   
     9     4    12 1   
    10     4    25 1   
    11     5    19 1   
    12     6     8 1   
    13     6    26 1   
    14     6    27 1   
    15     7    13 1   
    16     7    14 1   
    17     8    10 ar  
    18     8    21 ar  
    19    10    12 ar  
    20    10    28 1   
    21    12    13 ar  
    22    13    20 ar  
    23    14    15 ar  
    24    14    19 ar  
    25    15    16 ar  
    26    15    29 1   
    27    16    17 ar  
    28    16    30 1   
    29    17    18 ar  
    30    18    19 ar  
    31    18    31 1   
    32    20    21 ar  
    33    20    32 1   
@<TRIPOS>SUBSTRUCTURE
     1 9W7         1 TEMP              0 ****  ****    0 ROOT
