@<TRIPOS>MOLECULE
9W8
   41    43     1     0     0
SMALL
bcc


@<TRIPOS>ATOM
      1 C13          3.2270     0.0740     0.0440 ca         1 9W8       0.906900
      2 C15          5.1310    -0.6120     1.0740 ca         1 9W8       0.478700
      3 C17          4.9400    -0.6550    -1.2570 ca         1 9W8       0.478700
      4 C20         -2.7420    -2.0790    -1.2860 c3         1 9W8      -0.068900
      5 C02         -4.4920     1.0380    -0.3730 cc         1 9W8       0.132800
      6 C03         -3.5990     1.7130     0.3880 cd         1 9W8      -0.310200
      7 C04         -2.2800     1.2030     0.6800 c          1 9W8       0.583500
      8 O05         -1.5030     1.8590     1.3910 o          1 9W8      -0.595100
      9 C06         -1.9540    -0.0910     0.0970 cc         1 9W8      -0.236400
     10 C07         -0.6040    -0.7800     0.2370 c6         1 9W8       0.010500
     11 C08          0.2580    -0.5000     1.4860 c6         1 9W8      -0.091900
     12 C09          1.2500     0.6580     1.3840 c6         1 9W8       0.215300
     13 N10          1.9860     0.6050     0.1330 nh         1 9W8      -0.748300
     14 C11          1.1000     0.6350    -1.0160 c6         1 9W8       0.215300
     15 C12          0.2500    -0.6260    -1.0390 c6         1 9W8      -0.091900
     16 N14          3.9050    -0.1350     1.1830 nb         1 9W8      -0.774000
     17 C16          5.7280    -0.8980    -0.1440 ca         1 9W8      -0.444600
     18 N18          3.7080    -0.1840    -1.1820 nb         1 9W8      -0.774000
     19 C19         -2.9140    -0.7360    -0.6440 cd         1 9W8       0.129800
     20 N21         -4.1290    -0.1690    -0.8670 na         1 9W8      -0.587800
     21 H1           5.6660    -0.7780     2.0030 h4         1 9W8       0.015100
     22 H2           5.3160    -0.8550    -2.2560 h4         1 9W8       0.015100
     23 H3          -3.7000    -2.4950    -1.5940 hc         1 9W8       0.056033
     24 H4          -2.1070    -2.0180    -2.1710 hc         1 9W8       0.056033
     25 H5          -2.2830    -2.7960    -0.6080 hc         1 9W8       0.056033
     26 H6          -6.6200     0.8040    -0.4190 hc         1 9W8       0.057033
     27 H7          -6.0660     2.4700    -0.2230 hc         1 9W8       0.057033
     28 H8          -5.9560     1.6770    -1.7960 hc         1 9W8       0.057033
     29 H9          -3.8750     2.6770     0.7960 ha         1 9W8       0.156000
     30 H11         -0.8330    -1.8440     0.3190 hc         1 9W8       0.032700
     31 H12         -0.3670    -0.3660     2.3700 hc         1 9W8       0.045950
     32 H13          0.8400    -1.4100     1.6640 hc         1 9W8       0.045950
     33 H14          0.7240     1.6070     1.4190 h1         1 9W8       0.075700
     34 H15          1.9450     0.6250     2.2190 h1         1 9W8       0.075700
     35 H16          0.4680     1.5230    -0.9310 h1         1 9W8       0.075700
     36 H17          1.6770     0.7320    -1.9320 h1         1 9W8       0.075700
     37 H18          0.9200    -1.4880    -1.1300 hc         1 9W8       0.045950
     38 H19         -0.3800    -0.6280    -1.9310 hc         1 9W8       0.045950
     39 H20          6.7310    -1.2900    -0.2190 ha         1 9W8       0.149000
     40 H10         -4.7880    -0.6720    -1.4420 hn         1 9W8       0.441800
     41 C01         -5.8590     1.5250    -0.7190 c3         1 9W8      -0.066900
@<TRIPOS>BOND
     1     1    13 1   
     2     1    16 ar  
     3     1    18 ar  
     4     2    16 ar  
     5     2    17 ar  
     6     2    21 1   
     7     3    17 ar  
     8     3    18 ar  
     9     3    22 1   
    10     4    19 1   
    11     4    23 1   
    12     4    24 1   
    13     4    25 1   
    14     5     6 2   
    15     5    20 1   
    16     5    41 1   
    17     6     7 1   
    18     6    29 1   
    19     7     8 2   
    20     7     9 1   
    21     9    10 1   
    22     9    19 2   
    23    10    11 1   
    24    10    15 1   
    25    10    30 1   
    26    11    12 1   
    27    11    31 1   
    28    11    32 1   
    29    12    13 1   
    30    12    33 1   
    31    12    34 1   
    32    13    14 1   
    33    14    15 1   
    34    14    35 1   
    35    14    36 1   
    36    15    37 1   
    37    15    38 1   
    38    17    39 1   
    39    19    20 1   
    40    20    40 1   
    41    26    41 1   
    42    27    41 1   
    43    28    41 1   
@<TRIPOS>SUBSTRUCTURE
     1 9W8         1 TEMP              0 ****  ****    0 ROOT
