@<TRIPOS>MOLECULE
9W8
   41    43     1     0     0
SMALL
No Charge or Current Charge


@<TRIPOS>ATOM
      1 C13          3.3870     0.0720     0.1870 ca         1 9W8       0.380900
      2 C15          5.0680    -1.0030     1.3390 ca         1 9W8       0.150400
      3 C17          5.2680    -0.5270    -1.0020 ca         1 9W8       0.150400
      4 C20         -2.9690    -2.3970    -0.8560 c3         1 9W8      -0.068900
      5 C02         -4.6430     0.9960    -0.3120 cc         1 9W8       0.132800
      6 C03         -3.5640     1.7920    -0.0580 cd         1 9W8      -0.360200
      7 C04         -2.1850     1.3520    -0.0290 c          1 9W8       0.583500
      8 O05         -1.3080     2.1670     0.2110 o          1 9W8      -0.595100
      9 C06         -1.9550    -0.0770    -0.2990 cc         1 9W8      -0.236400
     10 C07         -0.5110    -0.6230    -0.2860 c6         1 9W8       0.010500
     11 C08          0.1760    -0.6130     1.1190 c6         1 9W8      -0.091900
     12 C09          1.1650     0.5570     1.3580 c6         1 9W8       0.215300
     13 N10          2.0990     0.6800     0.2010 nh         1 9W8      -0.748300
     14 C11          1.3710     1.0440    -1.0500 c6         1 9W8       0.215300
     15 C12          0.3960    -0.0950    -1.4460 c6         1 9W8      -0.091900
     16 N14          3.8500    -0.4300     1.3540 nb         1 9W8      -0.248000
     17 C16          5.8260    -1.0760     0.1620 ca         1 9W8      -0.296000
     18 N18          4.0510     0.0470    -0.9910 nb         1 9W8      -0.248000
     19 C19         -3.0350    -0.9150    -0.5610 cd         1 9W8       0.129800
     20 N21         -4.3130    -0.3350    -0.5530 na         1 9W8      -0.643000
     21 H1           5.4370    -1.4070     2.2800 h4         1 9W8       0.015100
     22 H2           5.7990    -0.5460    -1.9520 h4         1 9W8       0.015100
     23 H3          -3.9620    -2.8280    -1.0290 hc         1 9W8       0.056033
     24 H4          -2.3700    -2.5920    -1.7530 hc         1 9W8       0.056033
     25 H5          -2.5190    -2.9440    -0.0190 hc         1 9W8       0.056033
     26 H6          -6.6700     0.9130     0.4070 hc         1 9W8       0.057033
     27 H7          -6.1590     2.5200    -0.1330 hc         1 9W8       0.057033
     28 H8          -6.5220     1.2640    -1.3270 hc         1 9W8       0.057033
     29 H9          -3.6910     2.8480     0.1450 ha         1 9W8       0.206000
     30 H11         -0.5730    -1.6940    -0.5070 hc         1 9W8       0.032700
     31 H12         -0.5810    -0.6310     1.9140 hc         1 9W8       0.045950
     32 H13          0.7430    -1.5480     1.2330 hc         1 9W8       0.045950
     33 H14          0.6160     1.4960     1.5020 h1         1 9W8       0.075700
     34 H15          1.6980     0.3940     2.3070 h1         1 9W8       0.075700
     35 H16          0.8210     1.9830    -0.9070 h1         1 9W8       0.075700
     36 H17          2.0550     1.2430    -1.8870 h1         1 9W8       0.075700
     37 H18          1.0040    -0.9310    -1.8170 hc         1 9W8       0.045950
     38 H19         -0.2210     0.2200    -2.2970 hc         1 9W8       0.045950
     39 H20          6.8090    -1.5390     0.1510 ha         1 9W8       0.131000
     40 H10         -5.0910    -0.9630    -0.7470 hn         1 9W8       0.497000
     41 C01         -6.0750     1.4480    -0.3430 c3         1 9W8      -0.066900
@<TRIPOS>BOND
     1     1    13 1   
     2     1    16 ar  
     3     1    18 ar  
     4     2    16 ar  
     5     2    17 ar  
     6     2    21 1   
     7     3    17 ar  
     8     3    18 ar  
     9     3    22 1   
    10     4    19 1   
    11     4    23 1   
    12     4    24 1   
    13     4    25 1   
    14     5     6 2   
    15     5    20 1   
    16     5    41 1   
    17     6     7 1   
    18     6    29 1   
    19     7     8 2   
    20     7     9 1   
    21     9    10 1   
    22     9    19 2   
    23    10    11 1   
    24    10    15 1   
    25    10    30 1   
    26    11    12 1   
    27    11    31 1   
    28    11    32 1   
    29    12    13 1   
    30    12    33 1   
    31    12    34 1   
    32    13    14 1   
    33    14    15 1   
    34    14    35 1   
    35    14    36 1   
    36    15    37 1   
    37    15    38 1   
    38    17    39 1   
    39    19    20 1   
    40    20    40 1   
    41    26    41 1   
    42    27    41 1   
    43    28    41 1   
@<TRIPOS>SUBSTRUCTURE
     1 9W8         1 TEMP              0 ****  ****    0 ROOT
