@<TRIPOS>MOLECULE
9W9
   14    14     1     0     0
SMALL
No Charge or Current Charge


@<TRIPOS>ATOM
      1 C2          14.6770     7.5200    16.7300 ca         1 9W9       0.025000
      2 C3          15.9540     7.6830    16.1560 ca         1 9W9      -0.110000
      3 C4          16.8790     6.6240    16.1760 ca         1 9W9      -0.077000
      4 C5          16.5290     5.3990    16.7700 ca         1 9W9      -0.127000
      5 C6          13.7320     8.6050    16.7080 cg         1 9W9       0.321000
      6 N           12.9590     9.4810    16.6950 n1         1 9W9      -0.449000
      7 C           15.2590     5.2320    17.3430 ca         1 9W9       0.141100
      8 O           14.9300     4.0400    17.9170 oh         1 9W9      -0.529100
      9 C1          14.3330     6.2880    17.3250 ca         1 9W9      -0.176000
     10 H2          16.2310     8.6290    15.6940 ha         1 9W9       0.130000
     11 H3          17.8640     6.7520    15.7320 ha         1 9W9       0.122000
     12 H4          17.2430     4.5790    16.7860 ha         1 9W9       0.133000
     13 H           14.0140     4.1010    18.2630 ho         1 9W9       0.470000
     14 H1          13.3480     6.1600    17.7680 ha         1 9W9       0.126000
@<TRIPOS>BOND
     1     1     2 ar  
     2     1     5 1   
     3     1     9 ar  
     4     2     3 ar  
     5     2    10 1   
     6     3     4 ar  
     7     3    11 1   
     8     4     7 ar  
     9     4    12 1   
    10     5     6 3   
    11     7     8 1   
    12     7     9 ar  
    13     8    13 1   
    14     9    14 1   
@<TRIPOS>SUBSTRUCTURE
     1 9W9         1 TEMP              0 ****  ****    0 ROOT
