@<TRIPOS>MOLECULE
9W9
   14    14     1     0     0
SMALL
abcg2


@<TRIPOS>ATOM
      1 C2          14.7010     7.5110    16.7270 ca         1 9W9       0.025000
      2 C3          15.9580     7.6860    16.1550 ca         1 9W9      -0.110000
      3 C4          16.8490     6.6240    16.1880 ca         1 9W9      -0.077000
      4 C5          16.5000     5.4190    16.7720 ca         1 9W9      -0.127000
      5 C6          13.7570     8.5830    16.7060 cg         1 9W9       0.321000
      6 N           12.9890     9.4410    16.6890 n1         1 9W9      -0.449000
      7 C           15.2380     5.2520    17.3440 ca         1 9W9       0.141100
      8 O           14.9560     4.0620    17.8970 oh         1 9W9      -0.529100
      9 C1          14.3310     6.3050    17.3220 ca         1 9W9      -0.176000
     10 H2          16.2290     8.6270    15.6980 ha         1 9W9       0.130000
     11 H3          17.8320     6.7360    15.7510 ha         1 9W9       0.122000
     12 H4          17.2040     4.5960    16.7910 ha         1 9W9       0.133000
     13 H           14.0620     4.0530    18.2600 ho         1 9W9       0.470000
     14 H1          13.3460     6.1970    17.7610 ha         1 9W9       0.126000
@<TRIPOS>BOND
     1     1     2 ar  
     2     1     5 1   
     3     1     9 ar  
     4     2     3 ar  
     5     2    10 1   
     6     3     4 ar  
     7     3    11 1   
     8     4     7 ar  
     9     4    12 1   
    10     5     6 3   
    11     7     8 1   
    12     7     9 ar  
    13     8    13 1   
    14     9    14 1   
@<TRIPOS>SUBSTRUCTURE
     1 9W9         1 TEMP              0 ****  ****    0 ROOT
