@<TRIPOS>MOLECULE
9WA
   67    72     1     0     0
SMALL
No Charge or Current Charge


@<TRIPOS>ATOM
      1 C4          64.7890    23.1300   -20.1240 ca         1 9WA      -0.079000
      2 C16         66.2360    24.7790   -27.8190 ca         1 9WA      -0.087500
      3 C12         64.7490    26.4060   -26.7960 ca         1 9WA      -0.087500
      4 C26         67.4990    21.0500   -19.4020 ca         1 9WA      -0.056000
      5 C3          64.8450    24.4640   -20.5560 ca         1 9WA      -0.104000
      6 C15         65.3040    24.5740   -28.8500 ca         1 9WA      -0.114000
      7 C13         63.8160    26.2020   -27.8280 ca         1 9WA      -0.114000
      8 C27         68.7800    20.6000   -19.0440 ca         1 9WA      -0.110000
      9 C18         62.4530    25.0970   -31.9160 cc         1 9WA      -0.228000
     10 C6          65.7910    22.4270   -22.2170 ca         1 9WA      -0.035000
     11 C19         61.4380    24.7390   -31.0050 cc         1 9WA       0.247900
     12 C29         67.1180    18.8810   -20.3930 ca         1 9WA       0.347900
     13 C22         64.4900    19.9290   -18.1040 cc         1 9WA       0.259900
     14 C17         63.5820    25.3360   -31.1890 cd         1 9WA      -0.153000
     15 C23         62.3520    20.1480   -18.1920 cd         1 9WA       0.404400
     16 C7          65.8500    23.7730   -22.6530 ca         1 9WA      -0.115000
     17 C11         65.9640    25.6940   -26.7830 ca         1 9WA      -0.083300
     18 C5          65.2510    22.0900   -20.9580 ca         1 9WA      -0.111300
     19 C25         66.6390    20.1790   -20.1050 ca         1 9WA      -0.126300
     20 C9          66.4130    25.4830   -24.2940 ca         1 9WA      -0.127300
     21 C2          65.3680    24.8010   -21.8140 ca         1 9WA       0.321000
     22 C14         64.0880    25.2870   -28.8630 ca         1 9WA       0.022800
     23 C8          66.3820    24.1260   -23.9130 ca         1 9WA       0.192000
     24 C28         69.1810    19.2930   -19.3830 ca         1 9WA       0.245300
     25 C21         64.2360    20.3470   -19.3850 cd         1 9WA      -0.266300
     26 C1          65.9030    26.4330   -23.3850 ca         1 9WA       0.608300
     27 C           65.3970    28.7860   -22.8650 c3         1 9WA       0.158900
     28 C10         66.9710    25.9150   -25.6580 c3         1 9WA       0.029200
     29 C20         65.2220    20.6160   -20.5030 c3         1 9WA       0.373900
     30 C30         70.5860    18.7960   -18.9890 c3         1 9WA       0.255700
     31 N3          63.3410    19.8050   -17.3770 nc         1 9WA      -0.672000
     32 N5          68.3520    18.4450   -20.0470 nb         1 9WA      -0.624000
     33 N2          61.8270    24.7300   -29.7440 nd         1 9WA      -0.517800
     34 N           65.3990    26.0970   -22.1800 nb         1 9WA      -0.758000
     35 N1          63.1560    25.0870   -29.8840 na         1 9WA       0.211000
     36 N4          62.8490    20.4930   -19.4410 na         1 9WA      -0.158500
     37 O1          64.7810    19.8300   -21.6020 oh         1 9WA      -0.658000
     38 O           65.9190    27.7650   -23.7390 os         1 9WA      -0.469300
     39 F2          71.5560    19.5870   -19.5050 f          1 9WA      -0.104667
     40 F           70.7540    18.7960   -17.6460 f          1 9WA      -0.104667
     41 F1          70.8500    17.5350   -19.4130 f          1 9WA      -0.104667
     42 Cl          67.0060    22.8820   -25.0100 cl         1 9WA      -0.182000
     43 H4          64.3880    22.9180   -19.1350 ha         1 9WA       0.132000
     44 H12         64.5240    27.1210   -26.0080 ha         1 9WA       0.121000
     45 H26         67.1870    22.0560   -19.1280 ha         1 9WA       0.138000
     46 H3          64.4800    25.2520   -19.9040 ha         1 9WA       0.137000
     47 H15         65.5250    23.8580   -29.6390 ha         1 9WA       0.131500
     48 H13         62.8810    26.7580   -27.8260 ha         1 9WA       0.131500
     49 H27         69.4580    21.2570   -18.5040 ha         1 9WA       0.145000
     50 H18         62.3310    25.1690   -32.9920 ha         1 9WA       0.147000
     51 H6          66.1660    21.6260   -22.8480 ha         1 9WA       0.148000
     52 H19         60.4110    24.4870   -31.2370 h4         1 9WA       0.039100
     53 H29         66.4980    18.1500   -20.9100 h4         1 9WA       0.028100
     54 H22         65.4460    19.7050   -17.6470 h4         1 9WA       0.044100
     55 H17         64.5850    25.6430   -31.4650 h4         1 9WA       0.155000
     56 H23         61.2930    20.1730   -17.9600 h5         1 9WA       0.058100
     57 H'1         65.5000    29.7750   -23.3290 h1         1 9WA       0.052367
     58 H'2         64.3320    28.6180   -22.6580 h1         1 9WA       0.052367
     59 H'3         65.9400    28.8010   -21.9110 h1         1 9WA       0.052367
     60 H103        67.9060    25.3800   -25.8670 hc         1 9WA       0.071200
     61 H102        67.2690    26.9700   -25.6480 hc         1 9WA       0.071200
     62 H1          64.1430    19.1960   -21.2140 ho         1 9WA       0.456000
     63 C24         62.0340    20.9430   -20.5840 c3         1 9WA       0.057900
     64 H16         67.1700    24.2200   -27.8260 ha         1 9WA       0.121000
     65 H242        61.0660    21.3160   -20.2260 h1         1 9WA       0.061033
     66 H241        62.5450    21.7500   -21.1220 h1         1 9WA       0.061033
     67 H243        61.8620    20.1040   -21.2690 h1         1 9WA       0.061033
@<TRIPOS>BOND
     1     1     5 ar  
     2     1    18 ar  
     3     1    43 1   
     4     2     6 ar  
     5     2    17 ar  
     6     2    64 1   
     7     3     7 ar  
     8     3    17 ar  
     9     3    44 1   
    10     4     8 ar  
    11     4    19 ar  
    12     4    45 1   
    13     5    21 ar  
    14     5    46 1   
    15     6    22 ar  
    16     6    47 1   
    17     7    22 ar  
    18     7    48 1   
    19     8    24 ar  
    20     8    49 1   
    21     9    11 1   
    22     9    14 2   
    23     9    50 1   
    24    10    16 ar  
    25    10    18 ar  
    26    10    51 1   
    27    11    33 2   
    28    11    52 1   
    29    12    19 ar  
    30    12    32 ar  
    31    12    53 1   
    32    13    25 2   
    33    13    31 1   
    34    13    54 1   
    35    14    35 1   
    36    14    55 1   
    37    15    31 2   
    38    15    36 1   
    39    15    56 1   
    40    16    21 ar  
    41    16    23 ar  
    42    17    28 1   
    43    18    29 1   
    44    19    29 1   
    45    20    23 ar  
    46    20    26 ar  
    47    20    28 1   
    48    21    34 ar  
    49    22    35 1   
    50    23    42 1   
    51    24    30 1   
    52    24    32 ar  
    53    25    29 1   
    54    25    36 1   
    55    26    34 ar  
    56    26    38 1   
    57    27    38 1   
    58    27    57 1   
    59    27    58 1   
    60    27    59 1   
    61    28    60 1   
    62    28    61 1   
    63    29    37 1   
    64    30    39 1   
    65    30    40 1   
    66    30    41 1   
    67    33    35 1   
    68    36    63 1   
    69    37    62 1   
    70    63    65 1   
    71    63    66 1   
    72    63    67 1   
@<TRIPOS>SUBSTRUCTURE
     1 9WA         1 TEMP              0 ****  ****    0 ROOT
