@<TRIPOS>MOLECULE
9WA
   67    72     1     0     0
SMALL
abcg2


@<TRIPOS>ATOM
      1 C4          65.1390    23.0180   -20.2440 ca         1 9WA      -0.079000
      2 C16         66.0400    24.9480   -28.0460 ca         1 9WA      -0.087500
      3 C12         64.6520    26.3410   -26.6810 ca         1 9WA      -0.087500
      4 C26         67.7530    21.1540   -19.4710 ca         1 9WA      -0.056000
      5 C3          65.1890    24.3280   -20.6510 ca         1 9WA      -0.104000
      6 C15         65.0270    24.8500   -28.9910 ca         1 9WA      -0.114000
      7 C13         63.6350    26.2610   -27.6200 ca         1 9WA      -0.114000
      8 C27         68.8940    20.7660   -18.7740 ca         1 9WA      -0.110000
      9 C18         61.6360    25.2240   -31.6070 cc         1 9WA      -0.228000
     10 C6          66.0090    22.2810   -22.3610 ca         1 9WA      -0.035000
     11 C19         60.7950    25.4710   -30.5040 cc         1 9WA       0.247900
     12 C29         67.0460    18.8830   -19.4260 ca         1 9WA       0.347900
     13 C22         64.1910    19.9250   -18.4280 cc         1 9WA       0.259900
     14 C17         62.9070    25.2060   -31.0790 cd         1 9WA      -0.153000
     15 C23         62.1950    20.1620   -19.1640 cd         1 9WA       0.404400
     16 C7          66.0650    23.6170   -22.8080 ca         1 9WA      -0.115000
     17 C11         65.8720    25.6900   -26.8790 ca         1 9WA      -0.083300
     18 C5          65.5500    21.9780   -21.1020 ca         1 9WA      -0.111300
     19 C25         66.8000    20.2060   -19.8110 ca         1 9WA      -0.126300
     20 C9          66.5530    25.3260   -24.4850 ca         1 9WA      -0.127300
     21 C2          65.6520    24.6630   -21.9400 ca         1 9WA       0.321000
     22 C14         63.8220    25.5130   -28.7800 ca         1 9WA       0.022800
     23 C8          66.5120    24.0150   -24.1010 ca         1 9WA       0.192000
     24 C28         69.0260    19.4300   -18.4430 ca         1 9WA       0.245300
     25 C21         64.3150    20.2800   -19.7490 cd         1 9WA      -0.266300
     26 C1          66.1140    26.2750   -23.5020 ca         1 9WA       0.608300
     27 C           65.7070    28.5610   -22.9680 c3         1 9WA       0.158900
     28 C10         66.9860    25.7840   -25.8550 c3         1 9WA       0.029200
     29 C20         65.5260    20.5330   -20.6070 c3         1 9WA       0.373900
     30 C30         70.2210    18.9170   -17.6730 c3         1 9WA       0.255700
     31 N3          62.8650    19.8520   -18.0710 nc         1 9WA      -0.672000
     32 N5          68.1260    18.4980   -18.7580 nb         1 9WA      -0.624000
     33 N2          61.4900    25.5980   -29.3790 nd         1 9WA      -0.517800
     34 N           65.6880    25.9750   -22.3090 nb         1 9WA      -0.758000
     35 N1          62.7850    25.4320   -29.7420 na         1 9WA       0.211000
     36 N4          63.0160    20.4340   -20.2080 na         1 9WA      -0.158500
     37 O1          65.4930    19.6970   -21.7800 oh         1 9WA      -0.658000
     38 O           66.1600    27.5600   -23.8930 os         1 9WA      -0.469300
     39 F2          71.1360    19.8790   -17.4510 f          1 9WA      -0.104667
     40 F           69.8600    18.4270   -16.4650 f          1 9WA      -0.104667
     41 F1          70.8480    17.9150   -18.3240 f          1 9WA      -0.104667
     42 CL          67.0100    22.7790   -25.2260 cl         1 9WA      -0.182000
     43 H4          64.7770    22.7790   -19.2530 ha         1 9WA       0.132000
     44 H12         64.4950    26.9290   -25.7870 ha         1 9WA       0.121000
     45 H26         67.6250    22.1910   -19.7420 ha         1 9WA       0.138000
     46 H3          64.8720    25.1280   -19.9950 ha         1 9WA       0.137000
     47 H15         65.1740    24.2440   -29.8750 ha         1 9WA       0.131500
     48 H13         62.7000    26.7790   -27.4630 ha         1 9WA       0.131500
     49 H27         69.6490    21.4880   -18.5030 ha         1 9WA       0.145000
     50 H18         61.3590    25.0870   -32.6380 ha         1 9WA       0.147000
     51 H6          66.3250    21.4910   -23.0220 ha         1 9WA       0.148000
     52 H19         59.7200    25.5580   -30.4830 h4         1 9WA       0.039100
     53 H29         66.3370    18.0990   -19.6670 h4         1 9WA       0.028100
     54 H22         64.9790    19.7300   -17.7210 h4         1 9WA       0.044100
     55 H17         63.8670    25.0770   -31.5460 h4         1 9WA       0.155000
     56 H23         61.1210    20.2000   -19.2650 h5         1 9WA       0.058100
     57 H'1         65.8320    29.5060   -23.4890 h1         1 9WA       0.052367
     58 H'2         64.6600    28.4000   -22.7150 h1         1 9WA       0.052367
     59 H'3         66.3080    28.5430   -22.0590 h1         1 9WA       0.052367
     60 H103        67.8270    25.1790   -26.1890 hc         1 9WA       0.071200
     61 H102        67.3320    26.8140   -25.7870 hc         1 9WA       0.071200
     62 H1          65.2640    18.7980   -21.5130 ho         1 9WA       0.456000
     63 C24         62.5700    20.8220   -21.5400 c3         1 9WA       0.057900
     64 H16         66.9720    24.4230   -28.2140 ha         1 9WA       0.121000
     65 H242        61.4830    20.8090   -21.5470 h1         1 9WA       0.061033
     66 H241        62.9190    21.8240   -21.7800 h1         1 9WA       0.061033
     67 H243        62.9500    20.1250   -22.2830 h1         1 9WA       0.061033
@<TRIPOS>BOND
     1     1     5 ar  
     2     1    18 ar  
     3     1    43 1   
     4     2     6 ar  
     5     2    17 ar  
     6     2    64 1   
     7     3     7 ar  
     8     3    17 ar  
     9     3    44 1   
    10     4     8 ar  
    11     4    19 ar  
    12     4    45 1   
    13     5    21 ar  
    14     5    46 1   
    15     6    22 ar  
    16     6    47 1   
    17     7    22 ar  
    18     7    48 1   
    19     8    24 ar  
    20     8    49 1   
    21     9    11 1   
    22     9    14 2   
    23     9    50 1   
    24    10    16 ar  
    25    10    18 ar  
    26    10    51 1   
    27    11    33 2   
    28    11    52 1   
    29    12    19 ar  
    30    12    32 ar  
    31    12    53 1   
    32    13    25 2   
    33    13    31 1   
    34    13    54 1   
    35    14    35 1   
    36    14    55 1   
    37    15    31 2   
    38    15    36 1   
    39    15    56 1   
    40    16    21 ar  
    41    16    23 ar  
    42    17    28 1   
    43    18    29 1   
    44    19    29 1   
    45    20    23 ar  
    46    20    26 ar  
    47    20    28 1   
    48    21    34 ar  
    49    22    35 1   
    50    23    42 1   
    51    24    30 1   
    52    24    32 ar  
    53    25    29 1   
    54    25    36 1   
    55    26    34 ar  
    56    26    38 1   
    57    27    38 1   
    58    27    57 1   
    59    27    58 1   
    60    27    59 1   
    61    28    60 1   
    62    28    61 1   
    63    29    37 1   
    64    30    39 1   
    65    30    40 1   
    66    30    41 1   
    67    33    35 1   
    68    36    63 1   
    69    37    62 1   
    70    63    65 1   
    71    63    66 1   
    72    63    67 1   
@<TRIPOS>SUBSTRUCTURE
     1 9WA         1 TEMP              0 ****  ****    0 ROOT
