@<TRIPOS>MOLECULE
9WB
   28    29     1     0     0
SMALL
No Charge or Current Charge


@<TRIPOS>ATOM
      1 C10          0.2190    -0.0660     0.0670 cc         1 9WB      -0.207400
      2 C21         -3.3520     0.4960     1.1680 ca         1 9WB      -0.114500
      3 C01          4.5740     0.1550     0.0040 c3         1 9WB      -0.067900
      4 C05          3.0800     0.0060     0.0410 cc         1 9WB       0.132800
      5 C06          2.4040    -1.1560     0.3070 cd         1 9WB      -0.356200
      6 C08          0.9610    -1.2880     0.3430 c          1 9WB       0.582500
      7 O09          0.4270    -2.3620     0.5920 o          1 9WB      -0.575100
      8 C11          0.8480     1.1310    -0.2160 cd         1 9WB       0.146800
      9 C12          0.1560     2.4370    -0.5290 c3         1 9WB      -0.067900
     10 N16          2.2530     1.1050    -0.2090 na         1 9WB      -0.645000
     11 C18         -1.2430    -0.0440     0.0670 ca         1 9WB      -0.021800
     12 C19         -1.9470     0.4720     1.1720 ca         1 9WB      -0.091500
     13 C23         -4.0600     0.0010     0.0590 ca         1 9WB      -0.109000
     14 C25         -3.3620    -0.5180    -1.0440 ca         1 9WB      -0.114500
     15 C27         -1.9560    -0.5410    -1.0390 ca         1 9WB      -0.091500
     16 H02          5.0730    -0.7960     0.2220 hc         1 9WB       0.056700
     17 H03          4.9090     0.4890    -0.9850 hc         1 9WB       0.056700
     18 H04          4.9120     0.8880     0.7450 hc         1 9WB       0.056700
     19 H07          2.9360    -2.0750     0.5160 ha         1 9WB       0.205000
     20 H13         -0.3490     2.8340     0.3590 hc         1 9WB       0.058367
     21 H14          0.8600     3.2010    -0.8780 hc         1 9WB       0.058367
     22 H15         -0.5980     2.3060    -1.3140 hc         1 9WB       0.058367
     23 H17          2.7200     1.9880    -0.4120 hn         1 9WB       0.498000
     24 H20         -1.4020     0.8550     2.0320 ha         1 9WB       0.113000
     25 H24         -5.1480     0.0190     0.0560 ha         1 9WB       0.109000
     26 H26         -3.9090    -0.9030    -1.9020 ha         1 9WB       0.110000
     27 H28         -1.4190    -0.9430    -1.8960 ha         1 9WB       0.113000
     28 H22         -3.8920     0.8970     2.0230 ha         1 9WB       0.110000
@<TRIPOS>BOND
     1     1     6 1   
     2     1     8 2   
     3     1    11 1   
     4     2    12 ar  
     5     2    13 ar  
     6     2    28 1   
     7     3     4 1   
     8     3    16 1   
     9     3    17 1   
    10     3    18 1   
    11     4     5 2   
    12     4    10 1   
    13     5     6 1   
    14     5    19 1   
    15     6     7 2   
    16     8     9 1   
    17     8    10 1   
    18     9    20 1   
    19     9    21 1   
    20     9    22 1   
    21    10    23 1   
    22    11    12 ar  
    23    11    15 ar  
    24    12    24 1   
    25    13    14 ar  
    26    13    25 1   
    27    14    15 ar  
    28    14    26 1   
    29    15    27 1   
@<TRIPOS>SUBSTRUCTURE
     1 9WB         1 TEMP              0 ****  ****    0 ROOT
