@<TRIPOS>MOLECULE
9WB
   28    29     1     0     0
SMALL
bcc


@<TRIPOS>ATOM
      1 C10          0.2190    -0.0160    -0.0060 cc         1 9WB      -0.207400
      2 C21         -3.3580     0.5900     1.0440 ca         1 9WB      -0.132500
      3 C01          4.4850     0.1680     0.0290 c3         1 9WB      -0.067900
      4 C05          3.0020     0.0100     0.0340 cc         1 9WB       0.132800
      5 C06          2.3620    -1.1760     0.1940 cd         1 9WB      -0.306200
      6 C08          0.9230    -1.2770     0.1750 c          1 9WB       0.582500
      7 O09          0.3300    -2.3540     0.3120 o          1 9WB      -0.575100
      8 C11          0.9110     1.1500    -0.1660 cd         1 9WB       0.146800
      9 C12          0.2850     2.4940    -0.3620 c3         1 9WB      -0.067900
     10 N16          2.2690     1.1370    -0.1450 na         1 9WB      -0.589800
     11 C18         -1.2600    -0.0340     0.0130 ca         1 9WB      -0.021800
     12 C19         -1.9690     0.6070     1.0270 ca         1 9WB      -0.109500
     13 C23         -4.0580    -0.0750     0.0480 ca         1 9WB      -0.127000
     14 C25         -3.3610    -0.7230    -0.9650 ca         1 9WB      -0.132500
     15 C27         -1.9740    -0.7060    -0.9790 ca         1 9WB      -0.109500
     16 H02          4.9720    -0.7730     0.2720 hc         1 9WB       0.056700
     17 H03          4.8380     0.4920    -0.9520 hc         1 9WB       0.056700
     18 H04          4.8020     0.9170     0.7560 hc         1 9WB       0.056700
     19 H07          2.9470    -2.0740     0.3420 ha         1 9WB       0.155000
     20 H13          0.1490     3.0000     0.5950 hc         1 9WB       0.058367
     21 H14          0.9120     3.1310    -0.9870 hc         1 9WB       0.058367
     22 H15         -0.6910     2.4100    -0.8330 hc         1 9WB       0.058367
     23 H17          2.7570     2.0100    -0.2820 hn         1 9WB       0.442800
     24 H20         -1.4290     1.1210     1.8120 ha         1 9WB       0.131000
     25 H24         -5.1400    -0.0900     0.0590 ha         1 9WB       0.127000
     26 H26         -3.8990    -1.2400    -1.7480 ha         1 9WB       0.128000
     27 H28         -1.4400    -1.2040    -1.7790 ha         1 9WB       0.131000
     28 H22         -3.8910     1.0940     1.8400 ha         1 9WB       0.128000
@<TRIPOS>BOND
     1     1     6 1   
     2     1     8 2   
     3     1    11 1   
     4     2    12 ar  
     5     2    13 ar  
     6     2    28 1   
     7     3     4 1   
     8     3    16 1   
     9     3    17 1   
    10     3    18 1   
    11     4     5 2   
    12     4    10 1   
    13     5     6 1   
    14     5    19 1   
    15     6     7 2   
    16     8     9 1   
    17     8    10 1   
    18     9    20 1   
    19     9    21 1   
    20     9    22 1   
    21    10    23 1   
    22    11    12 ar  
    23    11    15 ar  
    24    12    24 1   
    25    13    14 ar  
    26    13    25 1   
    27    14    15 ar  
    28    14    26 1   
    29    15    27 1   
@<TRIPOS>SUBSTRUCTURE
     1 9WB         1 TEMP              0 ****  ****    0 ROOT
