@<TRIPOS>MOLECULE
9WC
   47    50     1     0     0
SMALL
abcg2


@<TRIPOS>ATOM
      1 C10          2.2730    -3.5990    83.4090 ca         1 9WC      -0.184600
      2 C13          0.2410    -2.2720    84.8220 ca         1 9WC       0.145600
      3 C15          0.9480    -3.7680    83.0550 ca         1 9WC       0.039000
      4 C24         -3.7560    -2.7400    83.7370 ca         1 9WC       0.043600
      5 C26         -5.6190    -1.9860    82.4340 ca         1 9WC      -0.105500
      6 C28         -5.8650    -3.8560    83.9280 ca         1 9WC      -0.105500
      7 C1           6.9960    -5.3060    82.8360 c6         1 9WC      -0.073200
      8 C2           7.1500    -4.9550    84.3050 c6         1 9WC      -0.064400
      9 C3           6.0060    -5.5590    85.0970 c6         1 9WC      -0.183400
     10 C4           4.6420    -5.1860    84.5630 c          1 9WC       0.607300
     11 C5           4.5620    -4.7300    83.1710 ce         1 9WC      -0.491400
     12 C6           5.6490    -4.9240    82.3290 c2         1 9WC       0.278900
     13 C9           3.3320    -4.2240    82.5830 c          1 9WC       0.642900
     14 C11          2.5760    -2.7420    84.4710 ca         1 9WC       0.010000
     15 C12          1.5860    -2.0780    85.1610 ca         1 9WC      -0.186000
     16 C14         -0.0650    -3.1310    83.7630 ca         1 9WC      -0.231600
     17 C16         -1.4560    -3.3470    83.3760 c          1 9WC       0.599600
     18 C19         -2.0940    -1.7700    85.1690 c          1 9WC       0.627000
     19 C25         -4.2870    -1.8640    82.8040 ca         1 9WC      -0.084000
     20 C27         -6.4070    -2.9820    82.9950 ca         1 9WC      -0.100000
     21 C29         -4.5340    -3.7370    84.3020 ca         1 9WC      -0.084000
     22 N17         -0.7700    -1.6320    85.5070 n          1 9WC      -0.300000
     23 N18         -2.3780    -2.6180    84.1060 n          1 9WC      -0.301600
     24 O7           5.5660    -4.7840    81.0400 oh         1 9WC      -0.531100
     25 O20         -1.8100    -4.0890    82.4870 o          1 9WC      -0.503000
     26 O21         -2.9880    -1.1960    85.7500 o          1 9WC      -0.536000
     27 O23          3.1660    -4.2350    81.3560 o          1 9WC      -0.599100
     28 H1           0.6790    -4.4140    82.2290 ha         1 9WC       0.152000
     29 H2          -1.3420    -0.3670    87.0610 h1         1 9WC       0.058367
     30 H3           0.0970    -1.3300    87.3950 h1         1 9WC       0.058367
     31 H4           0.1870     0.0650    86.2980 h1         1 9WC       0.058367
     32 H5          -6.0380    -1.3040    81.7070 ha         1 9WC       0.116000
     33 H6          -6.4780    -4.6320    84.3670 ha         1 9WC       0.116000
     34 H7           7.1170    -6.3860    82.6860 hc         1 9WC       0.081200
     35 H8           7.7540    -4.8220    82.2170 hc         1 9WC       0.081200
     36 H9           8.1050    -5.3250    84.6770 hc         1 9WC       0.055700
     37 H10          7.1600    -3.8690    84.4230 hc         1 9WC       0.055700
     38 H11          6.0750    -6.6530    85.0720 hc         1 9WC       0.073700
     39 H12          6.0470    -5.2730    86.1500 hc         1 9WC       0.073700
     40 H13          3.6060    -2.5560    84.7460 ha         1 9WC       0.120000
     41 H14          1.8710    -1.4090    85.9590 ha         1 9WC       0.126000
     42 H15         -3.6630    -1.0910    82.3720 ha         1 9WC       0.121000
     43 H16         -7.4460    -3.0760    82.7050 ha         1 9WC       0.113000
     44 H17         -4.1020    -4.4130    85.0290 ha         1 9WC       0.121000
     45 H18          4.6040    -4.5880    80.8250 ho         1 9WC       0.544000
     46 C22         -0.4340    -0.7660    86.6290 c3         1 9WC       0.083300
     47 O8           3.6490    -5.3310    85.2530 o          1 9WC      -0.537100
@<TRIPOS>BOND
     1     1     3 ar  
     2     1    13 1   
     3     1    14 ar  
     4     2    15 ar  
     5     2    16 ar  
     6     2    22 1   
     7     3    16 ar  
     8     3    28 1   
     9     4    19 ar  
    10     4    21 ar  
    11     4    23 1   
    12     5    19 ar  
    13     5    20 ar  
    14     5    32 1   
    15     6    20 ar  
    16     6    21 ar  
    17     6    33 1   
    18     7     8 1   
    19     7    12 1   
    20     7    34 1   
    21     7    35 1   
    22     8     9 1   
    23     8    36 1   
    24     8    37 1   
    25     9    10 1   
    26     9    38 1   
    27     9    39 1   
    28    10    11 1   
    29    10    47 2   
    30    11    12 2   
    31    11    13 1   
    32    12    24 1   
    33    13    27 2   
    34    14    15 ar  
    35    14    40 1   
    36    15    41 1   
    37    16    17 1   
    38    17    23 1   
    39    17    25 2   
    40    18    22 1   
    41    18    23 1   
    42    18    26 2   
    43    19    42 1   
    44    20    43 1   
    45    21    44 1   
    46    22    46 1   
    47    24    45 1   
    48    29    46 1   
    49    30    46 1   
    50    31    46 1   
@<TRIPOS>SUBSTRUCTURE
     1 9WC         1 TEMP              0 ****  ****    0 ROOT
