@<TRIPOS>MOLECULE
9WC
   47    50     1     0     0
SMALL
No Charge or Current Charge


@<TRIPOS>ATOM
      1 C10          2.2170    -3.9700    83.3980 ca         1 9WC      -0.184600
      2 C13          0.2970    -2.3690    84.7400 ca         1 9WC       0.145600
      3 C15          0.8450    -4.0980    83.1110 ca         1 9WC       0.039000
      4 C24         -3.8620    -2.6510    83.7190 ca         1 9WC       0.043600
      5 C26         -5.8790    -1.6500    82.7720 ca         1 9WC      -0.105500
      6 C28         -5.9490    -3.9170    83.6520 ca         1 9WC      -0.105500
      7 C1           7.0980    -4.9220    82.9210 c6         1 9WC      -0.073200
      8 C2           7.1960    -4.7470    84.4510 c6         1 9WC      -0.064400
      9 C3           6.1650    -5.6630    85.1420 c6         1 9WC      -0.183400
     10 C4           4.7370    -5.4230    84.6380 c          1 9WC       0.607300
     11 C5           4.5770    -5.0510    83.2040 ce         1 9WC      -0.491400
     12 C6           5.6610    -4.8290    82.4320 c2         1 9WC       0.278900
     13 C9           3.2150    -4.8240    82.6600 c          1 9WC       0.642900
     14 C11          2.6290    -2.9920    84.3230 ca         1 9WC       0.010000
     15 C12          1.6780    -2.1950    84.9800 ca         1 9WC      -0.186000
     16 C14         -0.1110    -3.2950    83.7720 ca         1 9WC      -0.231600
     17 C16         -1.5590    -3.4190    83.4220 c          1 9WC       0.599600
     18 C19         -2.0620    -1.6210    85.0270 c          1 9WC       0.627000
     19 C25         -4.5170    -1.5620    83.1090 ca         1 9WC      -0.084000
     20 C27         -6.5960    -2.8280    83.0440 ca         1 9WC      -0.100000
     21 C29         -4.5870    -3.8290    83.9880 ca         1 9WC      -0.084000
     22 N17         -0.6920    -1.5440    85.3680 n          1 9WC      -0.300000
     23 N18         -2.4660    -2.5610    84.0620 n          1 9WC      -0.301600
     24 O7           5.5730    -4.5080    81.1370 oh         1 9WC      -0.531100
     25 O20         -1.9300    -4.2340    82.5870 o          1 9WC      -0.503000
     26 O21         -2.8880    -0.8970    85.5710 o          1 9WC      -0.536000
     27 O23          2.9890    -5.1610    81.5040 o          1 9WC      -0.599100
     28 H1           0.5240    -4.8260    82.3670 ha         1 9WC       0.152000
     29 H2          -1.1390    -0.2470    87.0350 h1         1 9WC       0.058367
     30 H3           0.3460    -1.1950    87.1920 h1         1 9WC       0.058367
     31 H4           0.2920     0.2010    86.0750 h1         1 9WC       0.058367
     32 H5          -6.3780    -0.8060    82.3010 ha         1 9WC       0.116000
     33 H6          -6.5030    -4.8290    83.8630 ha         1 9WC       0.116000
     34 H7           7.5090    -5.8980    82.6300 hc         1 9WC       0.081200
     35 H8           7.7180    -4.1630    82.4230 hc         1 9WC       0.081200
     36 H9           8.2130    -4.9800    84.7970 hc         1 9WC       0.055700
     37 H10          7.0000    -3.6990    84.7200 hc         1 9WC       0.055700
     38 H11          6.4150    -6.6950    84.8660 hc         1 9WC       0.073700
     39 H12          6.1950    -5.5990    86.2380 hc         1 9WC       0.073700
     40 H13          3.6850    -2.8300    84.5270 ha         1 9WC       0.120000
     41 H14          2.0410    -1.4460    85.6760 ha         1 9WC       0.126000
     42 H15         -3.9680    -0.6480    82.8930 ha         1 9WC       0.121000
     43 H16         -7.6500    -2.8960    82.7840 ha         1 9WC       0.113000
     44 H17         -4.0940    -4.6760    84.4610 ha         1 9WC       0.121000
     45 H18          4.6220    -4.6530    80.9060 ho         1 9WC       0.544000
     46 C22         -0.2810    -0.6430    86.4800 c3         1 9WC       0.083300
     47 O8           3.7860    -5.5590    85.3910 o          1 9WC      -0.537100
@<TRIPOS>BOND
     1     1     3 ar  
     2     1    13 1   
     3     1    14 ar  
     4     2    15 ar  
     5     2    16 ar  
     6     2    22 1   
     7     3    16 ar  
     8     3    28 1   
     9     4    19 ar  
    10     4    21 ar  
    11     4    23 1   
    12     5    19 ar  
    13     5    20 ar  
    14     5    32 1   
    15     6    20 ar  
    16     6    21 ar  
    17     6    33 1   
    18     7     8 1   
    19     7    12 1   
    20     7    34 1   
    21     7    35 1   
    22     8     9 1   
    23     8    36 1   
    24     8    37 1   
    25     9    10 1   
    26     9    38 1   
    27     9    39 1   
    28    10    11 1   
    29    10    47 2   
    30    11    12 2   
    31    11    13 1   
    32    12    24 1   
    33    13    27 2   
    34    14    15 ar  
    35    14    40 1   
    36    15    41 1   
    37    16    17 1   
    38    17    23 1   
    39    17    25 2   
    40    18    22 1   
    41    18    23 1   
    42    18    26 2   
    43    19    42 1   
    44    20    43 1   
    45    21    44 1   
    46    22    46 1   
    47    24    45 1   
    48    29    46 1   
    49    30    46 1   
    50    31    46 1   
@<TRIPOS>SUBSTRUCTURE
     1 9WC         1 TEMP              0 ****  ****    0 ROOT
