@<TRIPOS>MOLECULE
9WD
   75    80     1     0     0
SMALL
No Charge or Current Charge


@<TRIPOS>ATOM
      1 C10        -31.5440     6.7440    -2.5660 ca         1 9WD      -0.121300
      2 C11        -32.1760     7.7910    -3.4950 c3         1 9WD       0.028200
      3 C12        -33.6940     7.6500    -3.5580 ca         1 9WD      -0.075300
      4 C13        -34.2870     6.6620    -4.3670 ca         1 9WD      -0.089500
      5 C14        -35.6850     6.5280    -4.4180 ca         1 9WD      -0.112000
      6 C15        -36.5110     7.3830    -3.6640 ca         1 9WD       0.020800
      7 C16        -35.9190     8.3720    -2.8530 ca         1 9WD      -0.112000
      8 C19        -39.9120     7.8820    -4.1220 cc         1 9WD      -0.228000
      9 C20        -39.8560     6.5350    -3.7130 cc         1 9WD       0.247900
     10 C21        -28.6290     1.1430    -2.0590 c3         1 9WD       0.324600
     11 C22        -29.5470     0.0190    -1.5910 cc         1 9WD      -0.238300
     12 C24        -31.3220    -1.2840    -1.2260 cc         1 9WD       0.397400
     13 C27        -27.8100    -0.4530    -3.9800 c6         1 9WD      -0.096400
     14 C30        -27.2100     2.0120    -4.1110 c6         1 9WD      -0.096400
     15 C01        -32.1740     8.3680     0.7400 c3         1 9WD       0.158900
     16 C02        -31.5450     6.9500    -1.1720 ca         1 9WD       0.610300
     17 N01        -31.0200     6.0670    -0.2980 nb         1 9WD      -0.754000
     18 C03        -30.4660     4.9300    -0.7610 ca         1 9WD       0.321000
     19 C04        -29.9350     4.0120     0.1570 ca         1 9WD      -0.093000
     20 C05        -29.3480     2.8130    -0.2720 ca         1 9WD      -0.077000
     21 C06        -29.2610     2.4980    -1.6440 ca         1 9WD      -0.114300
     22 C07        -29.8140     3.4160    -2.5690 ca         1 9WD      -0.067000
     23 C08        -30.4090     4.6280    -2.1390 ca         1 9WD      -0.111000
     24 C09        -30.9590     5.5550    -3.0550 ca         1 9WD       0.181000
     25 Cl         -30.9070     5.2320    -4.7990 cl         1 9WD      -0.192000
     26 C17        -34.5210     8.5050    -2.8030 ca         1 9WD      -0.089500
     27 N02        -37.9000     7.2440    -3.7180 na         1 9WD       0.210000
     28 C18        -38.6330     8.3540    -4.1370 cd         1 9WD      -0.153000
     29 N03        -38.6350     6.1000    -3.4640 nd         1 9WD      -0.517800
     30 O02        -27.4040     1.0300    -1.3240 oh         1 9WD      -0.647000
     31 C23        -29.2180    -1.0760    -0.8250 cd         1 9WD       0.238900
     32 N04        -30.3160    -1.8800    -0.6050 nd         1 9WD      -0.669000
     33 N05        -30.9070    -0.1220    -1.8430 na         1 9WD      -0.167500
     34 C25        -31.7890     0.7860    -2.5970 c3         1 9WD       0.058900
     35 C26        -28.2790     0.9890    -3.5980 c6         1 9WD      -0.036700
     36 C28        -27.5200    -0.5690    -5.4940 c6         1 9WD       0.097000
     37 N          -26.5230     0.4490    -5.9220 n          1 9WD      -0.412800
     38 C29        -26.9580     1.8370    -5.6260 c6         1 9WD       0.097000
     39 C          -24.8260    -1.3110    -6.6250 c3         1 9WD      -0.173100
     40 O          -24.3820     1.0320    -6.5270 o          1 9WD      -0.614100
     41 H1         -31.7580     7.7450    -4.5070 hc         1 9WD       0.070700
     42 H2         -31.9100     8.7990    -3.1520 hc         1 9WD       0.070700
     43 H3         -33.6670     5.9940    -4.9600 ha         1 9WD       0.118000
     44 H4         -36.1300     5.7590    -5.0470 ha         1 9WD       0.131000
     45 H5         -36.5430     9.0360    -2.2590 ha         1 9WD       0.131000
     46 H6         -40.8190     8.4200    -4.3790 ha         1 9WD       0.147000
     47 H7         -40.6870     5.8520    -3.5950 h4         1 9WD       0.039100
     48 H8         -32.3490    -1.6300    -1.2660 h5         1 9WD       0.056100
     49 H9         -28.5770    -1.1940    -3.7160 hc         1 9WD       0.063450
     50 H10        -26.9080    -0.7210    -3.4140 hc         1 9WD       0.063450
     51 H11        -26.2580     1.8680    -3.5830 hc         1 9WD       0.063450
     52 H12        -27.5140     3.0480    -3.9160 hc         1 9WD       0.063450
     53 H13        -32.6520     9.3380     0.9270 h1         1 9WD       0.052033
     54 H14        -32.7650     7.5950     1.2470 h1         1 9WD       0.052033
     55 H15        -31.1720     8.3920     1.1890 h1         1 9WD       0.052033
     56 H16        -29.9850     4.2330     1.2190 ha         1 9WD       0.137000
     57 H17        -28.9630     2.1210     0.4750 ha         1 9WD       0.119000
     58 H18        -29.7990     3.1830    -3.6270 ha         1 9WD       0.127000
     59 H19        -34.0810     9.2740    -2.1710 ha         1 9WD       0.118000
     60 H20        -38.2060     9.3170    -4.3940 h4         1 9WD       0.155000
     61 H21        -26.9030     1.8570    -1.4900 ho         1 9WD       0.449000
     62 H22        -28.2460    -1.3350    -0.4220 h4         1 9WD       0.041100
     63 H23        -32.7620     0.3060    -2.7630 h1         1 9WD       0.056367
     64 H24        -31.9450     1.7090    -2.0250 h1         1 9WD       0.056367
     65 H25        -31.3460     1.0250    -3.5700 h1         1 9WD       0.056367
     66 H26        -29.2110     1.1580    -4.1500 hc         1 9WD       0.039700
     67 H27        -28.4530    -0.4050    -6.0540 h1         1 9WD       0.054450
     68 H28        -27.1930    -1.5910    -5.7220 h1         1 9WD       0.054450
     69 H29        -26.2060     2.5670    -5.9590 h1         1 9WD       0.054450
     70 H30        -27.8820     2.0510    -6.1810 h1         1 9WD       0.054450
     71 H31        -23.8080    -1.4100    -7.0170 hc         1 9WD       0.060367
     72 H32        -24.9510    -1.8940    -5.7060 hc         1 9WD       0.060367
     73 H33        -25.5620    -1.7570    -7.3030 hc         1 9WD       0.060367
     74 C31        -25.2070     0.1450    -6.3490 c          1 9WD       0.602100
     75 O01        -32.0980     8.1120    -0.6770 os         1 9WD      -0.461300
@<TRIPOS>BOND
     1     1     2 1   
     2     1    16 ar  
     3     1    24 ar  
     4     2     3 1   
     5     2    41 1   
     6     2    42 1   
     7     3     4 ar  
     8     3    26 ar  
     9     4     5 ar  
    10     4    43 1   
    11     5     6 ar  
    12     5    44 1   
    13     6     7 ar  
    14     6    27 1   
    15     7    26 ar  
    16     7    45 1   
    17     8     9 1   
    18     8    28 2   
    19     8    46 1   
    20     9    29 2   
    21     9    47 1   
    22    10    11 1   
    23    10    21 1   
    24    10    30 1   
    25    10    35 1   
    26    11    31 2   
    27    11    33 1   
    28    12    32 2   
    29    12    33 1   
    30    12    48 1   
    31    13    35 1   
    32    13    36 1   
    33    13    49 1   
    34    13    50 1   
    35    14    35 1   
    36    14    38 1   
    37    14    51 1   
    38    14    52 1   
    39    15    53 1   
    40    15    54 1   
    41    15    55 1   
    42    15    75 1   
    43    16    17 ar  
    44    16    75 1   
    45    17    18 ar  
    46    18    19 ar  
    47    18    23 ar  
    48    19    20 ar  
    49    19    56 1   
    50    20    21 ar  
    51    20    57 1   
    52    21    22 ar  
    53    22    23 ar  
    54    22    58 1   
    55    23    24 ar  
    56    24    25 1   
    57    26    59 1   
    58    27    28 1   
    59    27    29 1   
    60    28    60 1   
    61    30    61 1   
    62    31    32 1   
    63    31    62 1   
    64    33    34 1   
    65    34    63 1   
    66    34    64 1   
    67    34    65 1   
    68    35    66 1   
    69    36    37 1   
    70    36    67 1   
    71    36    68 1   
    72    37    38 1   
    73    37    74 1   
    74    38    69 1   
    75    38    70 1   
    76    39    71 1   
    77    39    72 1   
    78    39    73 1   
    79    39    74 1   
    80    40    74 2   
@<TRIPOS>SUBSTRUCTURE
     1 9WD         1 TEMP              0 ****  ****    0 ROOT
