@<TRIPOS>MOLECULE
9WD
   75    80     1     0     0
SMALL
abcg2


@<TRIPOS>ATOM
      1 C10        -31.5350     6.6790    -2.6900 ca         1 9WD      -0.121300
      2 C11        -32.1680     7.7180    -3.5720 c3         1 9WD       0.028200
      3 C12        -33.6830     7.6520    -3.5640 ca         1 9WD      -0.075300
      4 C13        -34.3540     6.4330    -3.6620 ca         1 9WD      -0.089500
      5 C14        -35.7400     6.3740    -3.6790 ca         1 9WD      -0.112000
      6 C15        -36.4810     7.5490    -3.5830 ca         1 9WD       0.020800
      7 C16        -35.8300     8.7740    -3.4740 ca         1 9WD      -0.112000
      8 C19        -40.0330     7.9470    -3.8640 cc         1 9WD      -0.228000
      9 C20        -39.8400     6.6610    -3.3210 cc         1 9WD       0.247900
     10 C21        -28.6220     1.1370    -2.1090 c3         1 9WD       0.324600
     11 C22        -29.5100    -0.0070    -1.6660 cc         1 9WD      -0.238300
     12 C24        -31.2480    -1.3460    -1.4300 cc         1 9WD       0.397400
     13 C27        -27.8410    -0.3770    -4.0230 c6         1 9WD      -0.096400
     14 C30        -27.1720     2.0380    -4.0280 c6         1 9WD      -0.096400
     15 C01        -32.2150     8.2410     0.5580 c3         1 9WD       0.158900
     16 C02        -31.5680     6.8530    -1.2650 ca         1 9WD       0.610300
     17 N01        -31.1010     6.0060    -0.3940 nb         1 9WD      -0.754000
     18 C03        -30.5220     4.8590    -0.8500 ca         1 9WD       0.321000
     19 C04        -30.0260     3.9220     0.0800 ca         1 9WD      -0.093000
     20 C05        -29.4340     2.7610    -0.3450 ca         1 9WD      -0.077000
     21 C06        -29.2880     2.4670    -1.7200 ca         1 9WD      -0.114300
     22 C07        -29.7830     3.3640    -2.6360 ca         1 9WD      -0.067000
     23 C08        -30.4040     4.5640    -2.2330 ca         1 9WD      -0.111000
     24 C09        -30.9450     5.5280    -3.1330 ca         1 9WD       0.181000
     25 CL         -30.8570     5.1980    -4.8460 cl         1 9WD      -0.192000
     26 C17        -34.4420     8.8160    -3.4710 ca         1 9WD      -0.089500
     27 N02        -37.8970     7.4930    -3.5960 na         1 9WD       0.210000
     28 C18        -38.7620     8.4500    -4.0280 cd         1 9WD      -0.153000
     29 N03        -38.5500     6.3870    -3.1610 nd         1 9WD      -0.517800
     30 O02        -27.3700     1.0120    -1.4190 oh         1 9WD      -0.647000
     31 C23        -29.2170    -1.0500    -0.8230 cd         1 9WD       0.238900
     32 N04        -30.3080    -1.8800    -0.6800 nd         1 9WD      -0.669000
     33 N05        -30.8260    -0.2100    -2.0500 na         1 9WD      -0.167500
     34 C25        -31.6630     0.5900    -2.9330 c3         1 9WD       0.058900
     35 C26        -28.2630     1.0400    -3.6150 c6         1 9WD      -0.036700
     36 C28        -27.4860    -0.4380    -5.5080 c6         1 9WD       0.097000
     37 N          -26.4620     0.5470    -5.8420 n          1 9WD      -0.412800
     38 C29        -26.8550     1.9150    -5.5170 c6         1 9WD       0.097000
     39 C          -24.8410    -1.1960    -6.4450 c3         1 9WD      -0.173100
     40 O          -24.3440     1.1400    -6.3890 o          1 9WD      -0.614100
     41 H1         -31.8060     7.5940    -4.5920 hc         1 9WD       0.070700
     42 H2         -31.8580     8.7080    -3.2390 hc         1 9WD       0.070700
     43 H3         -33.7910     5.5100    -3.7310 ha         1 9WD       0.118000
     44 H4         -36.2490     5.4260    -3.7680 ha         1 9WD       0.131000
     45 H5         -36.3970     9.6890    -3.3690 ha         1 9WD       0.131000
     46 H6         -40.9610     8.4330    -4.1100 ha         1 9WD       0.147000
     47 H7         -40.5830     5.9310    -3.0380 h4         1 9WD       0.039100
     48 H8         -32.2480    -1.7250    -1.5700 h5         1 9WD       0.056100
     49 H9         -28.6460    -1.0870    -3.8300 hc         1 9WD       0.063450
     50 H10        -26.9770    -0.6900    -3.4320 hc         1 9WD       0.063450
     51 H11        -26.2640     1.8410    -3.4560 hc         1 9WD       0.063450
     52 H12        -27.4720     3.0630    -3.8140 hc         1 9WD       0.063450
     53 H13        -32.6940     9.2110     0.6540 h1         1 9WD       0.052033
     54 H14        -32.8100     7.4710     1.0480 h1         1 9WD       0.052033
     55 H15        -31.2180     8.2610     0.9970 h1         1 9WD       0.052033
     56 H16        -30.1320     4.1410     1.1350 ha         1 9WD       0.137000
     57 H17        -29.0850     2.0560     0.3990 ha         1 9WD       0.119000
     58 H18        -29.7200     3.1630    -3.6930 ha         1 9WD       0.127000
     59 H19        -33.9430     9.7730    -3.3750 ha         1 9WD       0.118000
     60 H20        -38.4150     9.3860    -4.4300 h4         1 9WD       0.155000
     61 H21        -27.5290     0.9720    -0.4680 ho         1 9WD       0.449000
     62 H22        -28.2820    -1.2530    -0.3280 h4         1 9WD       0.041100
     63 H23        -32.6210     0.0850    -3.0310 h1         1 9WD       0.056367
     64 H24        -31.8220     1.5830    -2.5190 h1         1 9WD       0.056367
     65 H25        -31.2100     0.6790    -3.9180 h1         1 9WD       0.056367
     66 H26        -29.1670     1.2740    -4.1830 hc         1 9WD       0.039700
     67 H27        -28.3760    -0.2170    -6.1070 h1         1 9WD       0.054450
     68 H28        -27.1520    -1.4340    -5.7760 h1         1 9WD       0.054450
     69 H29        -26.0470     2.5810    -5.8010 h1         1 9WD       0.054450
     70 H30        -27.7390     2.1670    -6.1110 h1         1 9WD       0.054450
     71 H31        -23.8070    -1.2440    -6.7760 hc         1 9WD       0.060367
     72 H32        -24.9480    -1.7740    -5.5260 hc         1 9WD       0.060367
     73 H33        -25.4800    -1.6520    -7.2020 hc         1 9WD       0.060367
     74 C31        -25.1960     0.2590    -6.2200 c          1 9WD       0.602100
     75 O01        -32.1400     7.9960    -0.8540 os         1 9WD      -0.461300
@<TRIPOS>BOND
     1     1     2 1   
     2     1    16 ar  
     3     1    24 ar  
     4     2     3 1   
     5     2    41 1   
     6     2    42 1   
     7     3     4 ar  
     8     3    26 ar  
     9     4     5 ar  
    10     4    43 1   
    11     5     6 ar  
    12     5    44 1   
    13     6     7 ar  
    14     6    27 1   
    15     7    26 ar  
    16     7    45 1   
    17     8     9 1   
    18     8    28 2   
    19     8    46 1   
    20     9    29 2   
    21     9    47 1   
    22    10    11 1   
    23    10    21 1   
    24    10    30 1   
    25    10    35 1   
    26    11    31 2   
    27    11    33 1   
    28    12    32 2   
    29    12    33 1   
    30    12    48 1   
    31    13    35 1   
    32    13    36 1   
    33    13    49 1   
    34    13    50 1   
    35    14    35 1   
    36    14    38 1   
    37    14    51 1   
    38    14    52 1   
    39    15    53 1   
    40    15    54 1   
    41    15    55 1   
    42    15    75 1   
    43    16    17 ar  
    44    16    75 1   
    45    17    18 ar  
    46    18    19 ar  
    47    18    23 ar  
    48    19    20 ar  
    49    19    56 1   
    50    20    21 ar  
    51    20    57 1   
    52    21    22 ar  
    53    22    23 ar  
    54    22    58 1   
    55    23    24 ar  
    56    24    25 1   
    57    26    59 1   
    58    27    28 1   
    59    27    29 1   
    60    28    60 1   
    61    30    61 1   
    62    31    32 1   
    63    31    62 1   
    64    33    34 1   
    65    34    63 1   
    66    34    64 1   
    67    34    65 1   
    68    35    66 1   
    69    36    37 1   
    70    36    67 1   
    71    36    68 1   
    72    37    38 1   
    73    37    74 1   
    74    38    69 1   
    75    38    70 1   
    76    39    71 1   
    77    39    72 1   
    78    39    73 1   
    79    39    74 1   
    80    40    74 2   
@<TRIPOS>SUBSTRUCTURE
     1 9WD         1 TEMP              0 ****  ****    0 ROOT
