@<TRIPOS>MOLECULE
9WE
   43    45     1     0     0
SMALL
abcg2


@<TRIPOS>ATOM
      1 C10         -6.0840    -0.7340    -0.6930 ca         1 9WE       0.339900
      2 C13          1.6080     1.1600    -0.9540 c6         1 9WE      -0.120900
      3 C17          1.6390     0.7620     1.5170 c6         1 9WE      -0.120900
      4 C20          6.3040    -0.3640    -1.2250 ca         1 9WE       0.153400
      5 C21          7.0770    -0.5280    -0.0870 ca         1 9WE      -0.289000
      6 C22          6.3650    -0.6940     1.0900 ca         1 9WE       0.153400
      7 O01         -1.5580     1.9180    -1.0250 o          1 9WE      -0.645100
      8 C02         -1.5160     0.8470    -0.4270 c          1 9WE       0.654100
      9 N03         -2.5670    -0.0200    -0.3890 ns         1 9WE      -0.530900
     10 C04         -3.7820     0.1820    -1.1330 c3         1 9WE       0.162300
     11 C05         -5.0100     0.0410    -0.2740 ca         1 9WE      -0.160300
     12 C06         -5.1290     0.6840     0.9530 ca         1 9WE      -0.056000
     13 C07         -6.2960     0.5360     1.6830 ca         1 9WE      -0.167000
     14 C08         -7.3090    -0.2570     1.1610 ca         1 9WE       0.336900
     15 N09         -7.2100    -0.8840    -0.0040 nb         1 9WE      -0.665000
     16 N11         -0.4200     0.4360     0.2580 ns         1 9WE      -0.533900
     17 C12          0.7890     1.2380     0.3390 c6         1 9WE       0.136700
     18 C14          2.2260    -0.2200    -1.1400 c6         1 9WE       0.222300
     19 N15          3.0370    -0.5710     0.0130 nh         1 9WE      -0.769300
     20 C16          2.2900    -0.5940     1.2560 c6         1 9WE       0.222300
     21 C18          4.3890    -0.5360    -0.0170 ca         1 9WE       0.388900
     22 N19          4.9830    -0.3630    -1.2070 nb         1 9WE      -0.250000
     23 N23          5.0450    -0.7000     1.1410 nb         1 9WE      -0.250000
     24 H30         -6.0250    -1.2660    -1.6390 h4         1 9WE       0.016100
     25 H34          0.9800     1.4060    -1.8120 hc         1 9WE       0.063200
     26 H33          2.4050     1.9090    -0.9140 hc         1 9WE       0.063200
     27 H40          2.4230     1.5020     1.6930 hc         1 9WE       0.063200
     28 H39          1.0360     0.7150     2.4270 hc         1 9WE       0.063200
     29 H41          6.7690    -0.2270    -2.1950 h4         1 9WE       0.019100
     30 H42          8.1560    -0.5230    -0.1150 ha         1 9WE       0.135000
     31 H43          6.8810    -0.8290     2.0350 h4         1 9WE       0.019100
     32 H24         -2.4350    -0.9300     0.0240 hn         1 9WE       0.305500
     33 H25         -3.7490     1.1830    -1.5640 h1         1 9WE       0.065700
     34 H26         -3.8450    -0.5160    -1.9730 h1         1 9WE       0.065700
     35 H27         -4.3180     1.2930     1.3350 ha         1 9WE       0.127000
     36 H28         -6.4240     1.0240     2.6390 ha         1 9WE       0.124000
     37 H29         -8.2350    -0.3920     1.7090 h4         1 9WE       0.019100
     38 H31         -0.4770    -0.4050     0.8090 hn         1 9WE       0.307500
     39 H32          0.5050     2.2780     0.5150 h1         1 9WE       0.071700
     40 H35          1.4380    -0.9740    -1.2480 h1         1 9WE       0.064700
     41 H36          2.8340    -0.2560    -2.0380 h1         1 9WE       0.064700
     42 H38          2.9500    -0.8600     2.0760 h1         1 9WE       0.064700
     43 H37          1.5360    -1.3850     1.1870 h1         1 9WE       0.064700
@<TRIPOS>BOND
     1     1    11 ar  
     2     1    15 ar  
     3     1    24 1   
     4     2    17 1   
     5     2    18 1   
     6     2    25 1   
     7     2    26 1   
     8     3    17 1   
     9     3    20 1   
    10     3    27 1   
    11     3    28 1   
    12     4     5 ar  
    13     4    22 ar  
    14     4    29 1   
    15     5     6 ar  
    16     5    30 1   
    17     6    23 ar  
    18     6    31 1   
    19     7     8 2   
    20     8     9 1   
    21     8    16 1   
    22     9    10 1   
    23     9    32 1   
    24    10    11 1   
    25    10    33 1   
    26    10    34 1   
    27    11    12 ar  
    28    12    13 ar  
    29    12    35 1   
    30    13    14 ar  
    31    13    36 1   
    32    14    15 ar  
    33    14    37 1   
    34    16    17 1   
    35    16    38 1   
    36    17    39 1   
    37    18    19 1   
    38    18    40 1   
    39    18    41 1   
    40    19    20 1   
    41    19    21 1   
    42    20    42 1   
    43    20    43 1   
    44    21    22 ar  
    45    21    23 ar  
@<TRIPOS>SUBSTRUCTURE
     1 9WE         1 TEMP              0 ****  ****    0 ROOT
