@<TRIPOS>MOLECULE
9WE
   43    45     1     0     0
SMALL
No Charge or Current Charge


@<TRIPOS>ATOM
      1 C10         -5.0830    -1.2530    -0.8670 ca         1 9WE       0.339900
      2 C13          1.6600     1.8000    -1.3320 c6         1 9WE      -0.120900
      3 C17          1.8300     2.1460     1.1420 c6         1 9WE      -0.120900
      4 C20          5.5200    -2.1680    -1.0100 ca         1 9WE       0.153400
      5 C21          6.1410    -2.5000     0.2020 ca         1 9WE      -0.289000
      6 C22          5.6670    -1.8740     1.3630 ca         1 9WE       0.153400
      7 O01         -1.6680     2.6740    -1.3720 o          1 9WE      -0.645100
      8 C02         -1.5250     1.7920    -0.5440 c          1 9WE       0.654100
      9 N03         -2.5230     0.9380    -0.1720 ns         1 9WE      -0.530900
     10 C04         -3.8750     0.9790    -0.7190 c3         1 9WE       0.162300
     11 C05         -4.7420    -0.1110    -0.1150 ca         1 9WE      -0.160300
     12 C06         -5.2240    -0.0010     1.2020 ca         1 9WE      -0.056000
     13 C07         -6.0240    -1.0390     1.7050 ca         1 9WE      -0.167000
     14 C08         -6.3130    -2.1420     0.8850 ca         1 9WE       0.336900
     15 N09         -5.8540    -2.2550    -0.3830 nb         1 9WE      -0.665000
     16 N11         -0.3530     1.5490     0.1140 ns         1 9WE      -0.533900
     17 C12          0.8990     2.2920    -0.0810 c6         1 9WE       0.136700
     18 C14          2.1830     0.3550    -1.1670 c6         1 9WE       0.222300
     19 N15          3.0400     0.2160     0.0560 nh         1 9WE      -0.769300
     20 C16          2.3780     0.7080     1.3090 c6         1 9WE       0.222300
     21 C18          4.1110    -0.7260     0.1070 ca         1 9WE       0.388900
     22 N19          4.5070    -1.2830    -1.0600 nb         1 9WE      -0.250000
     23 N23          4.6540    -0.9880     1.3180 nb         1 9WE      -0.250000
     24 H30         -4.7270    -1.3720    -1.8900 h4         1 9WE       0.016100
     25 H34          1.0120     1.8600    -2.2160 hc         1 9WE       0.063200
     26 H33          2.5080     2.4680    -1.5290 hc         1 9WE       0.063200
     27 H40          2.6760     2.8380     1.0360 hc         1 9WE       0.063200
     28 H39          1.3010     2.4500     2.0550 hc         1 9WE       0.063200
     29 H41          5.8350    -2.6140    -1.9530 h4         1 9WE       0.019100
     30 H42          6.9580    -3.2150     0.2400 ha         1 9WE       0.135000
     31 H43          6.1000    -2.0820     2.3400 h4         1 9WE       0.019100
     32 H24         -2.3070     0.2390     0.5250 hn         1 9WE       0.305500
     33 H25         -4.3170     1.9620    -0.5070 h1         1 9WE       0.065700
     34 H26         -3.8230     0.8590    -1.8100 h1         1 9WE       0.065700
     35 H27         -4.9860     0.8650     1.8170 ha         1 9WE       0.127000
     36 H28         -6.4170    -0.9970     2.7170 ha         1 9WE       0.124000
     37 H29         -6.9310    -2.9610     1.2520 h4         1 9WE       0.019100
     38 H31         -0.3600     0.7950     0.7860 hn         1 9WE       0.307500
     39 H32          0.6480     3.3570    -0.2090 h1         1 9WE       0.071700
     40 H35          1.3300    -0.3390    -1.1100 h1         1 9WE       0.064700
     41 H36          2.7350     0.1050    -2.0850 h1         1 9WE       0.064700
     42 H38          3.0770     0.7280     2.1580 h1         1 9WE       0.064700
     43 H37          1.5570     0.0310     1.5900 h1         1 9WE       0.064700
@<TRIPOS>BOND
     1     1    11 ar  
     2     1    15 ar  
     3     1    24 1   
     4     2    17 1   
     5     2    18 1   
     6     2    25 1   
     7     2    26 1   
     8     3    17 1   
     9     3    20 1   
    10     3    27 1   
    11     3    28 1   
    12     4     5 ar  
    13     4    22 ar  
    14     4    29 1   
    15     5     6 ar  
    16     5    30 1   
    17     6    23 ar  
    18     6    31 1   
    19     7     8 2   
    20     8     9 1   
    21     8    16 1   
    22     9    10 1   
    23     9    32 1   
    24    10    11 1   
    25    10    33 1   
    26    10    34 1   
    27    11    12 ar  
    28    12    13 ar  
    29    12    35 1   
    30    13    14 ar  
    31    13    36 1   
    32    14    15 ar  
    33    14    37 1   
    34    16    17 1   
    35    16    38 1   
    36    17    39 1   
    37    18    19 1   
    38    18    40 1   
    39    18    41 1   
    40    19    20 1   
    41    19    21 1   
    42    20    42 1   
    43    20    43 1   
    44    21    22 ar  
    45    21    23 ar  
@<TRIPOS>SUBSTRUCTURE
     1 9WE         1 TEMP              0 ****  ****    0 ROOT
