@<TRIPOS>MOLECULE
9WG
   39    42     1     0     0
SMALL
No Charge or Current Charge


@<TRIPOS>ATOM
      1 C4           1.6770     0.7740    -0.3840 cc         1 9WG      -0.171000
      2 N2           2.6700     2.5780     0.3340 na         1 9WG       0.143800
      3 C7          -0.7340     1.6090     0.0540 ca         1 9WG      -0.123500
      4 C9          -2.9460     2.4120     0.7530 ca         1 9WG      -0.158500
      5 C20         -0.0240    -1.5210     1.1060 c          1 9WG       0.589600
      6 C8          -1.5430     2.4720     0.8320 ca         1 9WG      -0.056500
      7 C18          0.6670    -2.8870    -0.6290 ca         1 9WG       0.341300
      8 C16          2.2070    -2.4440    -2.2850 ca         1 9WG       0.353900
      9 C19          0.7610    -1.5910    -0.1450 ca         1 9WG      -0.201600
     10 C1           3.6790     3.5810     0.7000 c3         1 9WG       0.073900
     11 C3           2.9130     1.3300    -0.2370 cd         1 9WG      -0.144000
     12 C5           0.7390     1.7050     0.1310 cc         1 9WG       0.356500
     13 N6           1.3230     2.8130     0.5580 nd         1 9WG      -0.519800
     14 C10         -3.5580     1.5070    -0.1230 ca         1 9WG       0.173000
     15 C11         -2.7760     0.6730    -0.9320 ca         1 9WG      -0.158500
     16 C12         -1.3740     0.7320    -0.8550 ca         1 9WG      -0.056500
     17 F13         -4.9050     1.4510    -0.2010 f          1 9WG      -0.183000
     18 C14          1.5790    -0.6350    -0.7770 ca         1 9WG       0.121000
     19 C15          2.3440    -1.1100    -1.8600 ca         1 9WG      -0.179000
     20 N17          1.3710    -3.3280    -1.6920 nb         1 9WG      -0.655000
     21 N22         -0.6540    -2.7610     1.2630 n          1 9WG      -0.424800
     22 C23         -0.2820    -3.7420     0.2030 c5         1 9WG       0.043700
     23 C24         -1.5150    -3.0470     2.4240 c3         1 9WG       0.099300
     24 HC9         -3.5560     3.0670     1.3680 ha         1 9WG       0.130000
     25 HC8         -1.0880     3.1800     1.5220 ha         1 9WG       0.124000
     26 HC16         2.7770    -2.8130    -3.1370 h4         1 9WG       0.022100
     27 HC1C         3.4240     4.5430     0.2380 h1         1 9WG       0.058700
     28 HC1A         3.7030     3.6940     1.7900 h1         1 9WG       0.058700
     29 HC1B         4.6660     3.2600     0.3460 h1         1 9WG       0.058700
     30 HC3          3.9080     0.9470    -0.4360 h4         1 9WG       0.156000
     31 HC11        -3.2560    -0.0100    -1.6290 ha         1 9WG       0.130000
     32 HC12        -0.7950     0.1060    -1.5280 ha         1 9WG       0.124000
     33 HC15         3.0140    -0.4470    -2.3990 ha         1 9WG       0.128000
     34 H23A        -1.1520    -4.0630    -0.3850 h1         1 9WG       0.071200
     35 H23B         0.2270    -4.6220     0.6160 h1         1 9WG       0.071200
     36 H24A        -2.3280    -2.3110     2.4730 h1         1 9WG       0.043700
     37 H24B        -1.9450    -4.0520     2.3310 h1         1 9WG       0.043700
     38 H24C        -0.9220    -2.9930     3.3460 h1         1 9WG       0.043700
     39 O21         -0.0690    -0.6040     1.9110 o          1 9WG      -0.527000
@<TRIPOS>BOND
     1     1    11 2   
     2     1    12 1   
     3     1    18 1   
     4     2    10 1   
     5     2    11 1   
     6     2    13 1   
     7     3     6 ar  
     8     3    12 1   
     9     3    16 ar  
    10     4     6 ar  
    11     4    14 ar  
    12     4    24 1   
    13     5     9 1   
    14     5    21 1   
    15     5    39 2   
    16     6    25 1   
    17     7     9 ar  
    18     7    20 ar  
    19     7    22 1   
    20     8    19 ar  
    21     8    20 ar  
    22     8    26 1   
    23     9    18 ar  
    24    10    27 1   
    25    10    28 1   
    26    10    29 1   
    27    11    30 1   
    28    12    13 2   
    29    14    15 ar  
    30    14    17 1   
    31    15    16 ar  
    32    15    31 1   
    33    16    32 1   
    34    18    19 ar  
    35    19    33 1   
    36    21    22 1   
    37    21    23 1   
    38    22    34 1   
    39    22    35 1   
    40    23    36 1   
    41    23    37 1   
    42    23    38 1   
@<TRIPOS>SUBSTRUCTURE
     1 9WG         1 TEMP              0 ****  ****    0 ROOT
