@<TRIPOS>MOLECULE
9WG
   39    42     1     0     0
SMALL
abcg2


@<TRIPOS>ATOM
      1 C4           1.7460     0.7250    -0.2880 cc         1 9WG      -0.171000
      2 N2           2.6510     2.6150     0.3320 na         1 9WG       0.143800
      3 C7          -0.6920     1.5970    -0.0700 ca         1 9WG      -0.123500
      4 C9          -2.8800     2.1900     0.7790 ca         1 9WG      -0.158500
      5 C20          0.0080    -1.4980     1.2120 c          1 9WG       0.589600
      6 C8          -1.4990     2.2670     0.8490 ca         1 9WG      -0.056500
      7 C18          0.6200    -2.8580    -0.5730 ca         1 9WG       0.341300
      8 C16          2.0150    -2.4530    -2.2750 ca         1 9WG       0.353900
      9 C19          0.7640    -1.5800    -0.0610 ca         1 9WG      -0.201600
     10 C1           3.5740     3.6730     0.6630 c3         1 9WG       0.073900
     11 C3           2.9450     1.3750    -0.0810 cd         1 9WG      -0.144000
     12 C5           0.7670     1.7000     0.0150 cc         1 9WG       0.356500
     13 N6           1.3420     2.8330     0.3840 nd         1 9WG      -0.519800
     14 C10         -3.4490     1.4280    -0.2240 ca         1 9WG       0.173000
     15 C11         -2.6850     0.7560    -1.1570 ca         1 9WG      -0.158500
     16 C12         -1.3030     0.8510    -1.0750 ca         1 9WG      -0.056500
     17 F13         -4.7880     1.3410    -0.2960 f          1 9WG      -0.183000
     18 C14          1.5750    -0.6590    -0.7190 ca         1 9WG       0.121000
     19 C15          2.2230    -1.1450    -1.8550 ca         1 9WG      -0.179000
     20 N17          1.2120    -3.3190    -1.6590 nb         1 9WG      -0.655000
     21 N22         -0.6110    -2.6970     1.3490 n          1 9WG      -0.424800
     22 C23         -0.2980    -3.6450     0.3060 c5         1 9WG       0.043700
     23 C24         -1.4270    -3.0710     2.4720 c3         1 9WG       0.099300
     24 HC9         -3.5020     2.7080     1.4970 ha         1 9WG       0.130000
     25 HC8         -1.0420     2.8470     1.6400 ha         1 9WG       0.124000
     26 HC16         2.5190    -2.8130    -3.1640 h4         1 9WG       0.022100
     27 HC1C         3.5120     4.4770    -0.0680 h1         1 9WG       0.058700
     28 HC1A         3.3510     4.0680     1.6510 h1         1 9WG       0.058700
     29 HC1B         4.5830     3.2720     0.6620 h1         1 9WG       0.058700
     30 HC3          3.9620     1.0250    -0.1700 h4         1 9WG       0.156000
     31 HC11        -3.1560     0.1790    -1.9420 ha         1 9WG       0.130000
     32 HC12        -0.7060     0.3460    -1.8230 ha         1 9WG       0.124000
     33 HC15         2.8700    -0.4990    -2.4320 ha         1 9WG       0.128000
     34 H23A        -1.1950    -3.9720    -0.2280 h1         1 9WG       0.071200
     35 H23B         0.1920    -4.5370     0.7090 h1         1 9WG       0.071200
     36 H24A        -1.6000    -2.2030     3.1030 h1         1 9WG       0.043700
     37 H24B        -2.3920    -3.4500     2.1320 h1         1 9WG       0.043700
     38 H24C        -0.9440    -3.8470     3.0700 h1         1 9WG       0.043700
     39 O21         -0.0360    -0.5710     2.0000 o          1 9WG      -0.527000
@<TRIPOS>BOND
     1     1    11 2   
     2     1    12 1   
     3     1    18 1   
     4     2    10 1   
     5     2    11 1   
     6     2    13 1   
     7     3     6 ar  
     8     3    12 1   
     9     3    16 ar  
    10     4     6 ar  
    11     4    14 ar  
    12     4    24 1   
    13     5     9 1   
    14     5    21 1   
    15     5    39 2   
    16     6    25 1   
    17     7     9 ar  
    18     7    20 ar  
    19     7    22 1   
    20     8    19 ar  
    21     8    20 ar  
    22     8    26 1   
    23     9    18 ar  
    24    10    27 1   
    25    10    28 1   
    26    10    29 1   
    27    11    30 1   
    28    12    13 2   
    29    14    15 ar  
    30    14    17 1   
    31    15    16 ar  
    32    15    31 1   
    33    16    32 1   
    34    18    19 ar  
    35    19    33 1   
    36    21    22 1   
    37    21    23 1   
    38    22    34 1   
    39    22    35 1   
    40    23    36 1   
    41    23    37 1   
    42    23    38 1   
@<TRIPOS>SUBSTRUCTURE
     1 9WG         1 TEMP              0 ****  ****    0 ROOT
