@<TRIPOS>MOLECULE
9WH
   44    47     1     0     0
SMALL
No Charge or Current Charge


@<TRIPOS>ATOM
      1 N12          0.2780     1.1300    -0.2030 nu         1 9WH      -0.873800
      2 C13         -0.9190     0.5010    -0.2590 cc         1 9WH       0.492900
      3 C15         -2.5050    -1.0200    -0.0820 cd         1 9WH      -0.149000
      4 C21         -7.0970    -1.7720     0.3470 ca         1 9WH      -0.153000
      5 C22         -7.4010    -1.1240     1.5560 ca         1 9WH      -0.064000
      6 C24         -5.7190     0.5690     1.0590 ca         1 9WH       0.172000
      7 C02          7.5150    -1.2080    -0.4830 cc         1 9WH       0.285300
      8 C03          7.2840    -0.3070    -1.5310 cc         1 9WH      -0.285000
      9 C04          6.3990     0.5990    -1.0680 cd         1 9WH       0.208000
     10 N05          5.8520     1.6860    -1.6950 nv         1 9WH      -1.047000
     11 N06          6.1270     0.2070     0.2560 na         1 9WH       0.087800
     12 C08          3.7770     0.6600     0.9130 cc         1 9WH       0.377700
     13 N09          3.1120    -0.4450     1.2210 nd         1 9WH      -0.275000
     14 N10          1.7860    -0.3640     0.8360 nd         1 9WH      -0.405000
     15 C11          1.5110     0.7930     0.2620 cc         1 9WH       0.703300
     16 C14         -1.1830    -0.8050     0.1650 cc         1 9WH      -0.216000
     17 N16         -2.9550     0.1850    -0.6410 na         1 9WH       0.131800
     18 C18         -5.4100    -0.0730    -0.1610 ca         1 9WH      -0.146300
     19 C19         -6.1100    -1.2500    -0.5020 ca         1 9WH       0.196000
     20 F20         -5.8310    -1.9000    -1.6540 f          1 9WH      -0.175000
     21 C23         -6.7090     0.0450     1.9080 ca         1 9WH      -0.126000
     22 N26         -1.9430     1.1350    -0.7540 nd         1 9WH      -0.575800
     23 S27          2.8310     1.9000     0.1410 ss         1 9WH      -0.337800
     24 N28          6.8380    -0.9350     0.6170 nd         1 9WH      -0.513800
     25 H37          0.2420     2.0660    -0.5860 hn         1 9WH       0.523000
     26 H39         -3.1400    -1.8840     0.0820 h4         1 9WH       0.159000
     27 H40         -4.4430     1.5690    -1.1760 h1         1 9WH       0.079200
     28 H41         -4.4470     0.0740    -2.1020 h1         1 9WH       0.079200
     29 H42         -7.6250    -2.6800     0.0670 ha         1 9WH       0.140000
     30 H43         -8.1660    -1.5280     2.2160 ha         1 9WH       0.125000
     31 H31          9.4740    -2.0250    -0.8080 hc         1 9WH       0.047700
     32 H30          8.4680    -2.9790     0.2990 hc         1 9WH       0.047700
     33 H29          8.1500    -3.0200    -1.4460 hc         1 9WH       0.047700
     34 H32          7.7390    -0.3470    -2.5140 ha         1 9WH       0.144000
     35 H34          6.0310     1.8400    -2.6860 hn         1 9WH       0.446500
     36 H33          5.0700     2.1880    -1.2790 hn         1 9WH       0.446500
     37 H35          5.4430     0.4900     2.2230 h1         1 9WH       0.091200
     38 H36          5.4510     1.9450     1.2160 h1         1 9WH       0.091200
     39 H38         -0.4790    -1.5030     0.5970 ha         1 9WH       0.177000
     40 H44         -6.9380     0.5490     2.8440 ha         1 9WH       0.137000
     41 C17         -4.3290     0.4820    -1.0910 c3         1 9WH       0.148900
     42 C07          5.2320     0.8710     1.2170 c3         1 9WH       0.062300
     43 Cl1         -4.8790     2.0380     1.5570 cl         1 9WH      -0.181000
     44 C01          8.4530    -2.3720    -0.6150 c3         1 9WH      -0.122400
@<TRIPOS>BOND
     1     1     2 1   
     2     1    15 1   
     3     1    25 1   
     4     2    16 1   
     5     2    22 2   
     6     3    16 2   
     7     3    17 1   
     8     3    26 1   
     9     4     5 ar  
    10     4    19 ar  
    11     4    29 1   
    12     5    21 ar  
    13     5    30 1   
    14     6    18 ar  
    15     6    21 ar  
    16     6    43 1   
    17     7     8 1   
    18     7    24 2   
    19     7    44 1   
    20     8     9 2   
    21     8    34 1   
    22     9    10 1   
    23     9    11 1   
    24    10    35 1   
    25    10    36 1   
    26    11    24 1   
    27    11    42 1   
    28    12    13 2   
    29    12    23 1   
    30    12    42 1   
    31    13    14 1   
    32    14    15 2   
    33    15    23 1   
    34    16    39 1   
    35    17    22 1   
    36    17    41 1   
    37    18    19 ar  
    38    18    41 1   
    39    19    20 1   
    40    21    40 1   
    41    27    41 1   
    42    28    41 1   
    43    31    44 1   
    44    32    44 1   
    45    33    44 1   
    46    37    42 1   
    47    38    42 1   
@<TRIPOS>SUBSTRUCTURE
     1 9WH         1 TEMP              0 ****  ****    0 ROOT
