@<TRIPOS>MOLECULE
9WH
   44    47     1     0     0
SMALL
bcc


@<TRIPOS>ATOM
      1 N12          0.1750    -0.2390    -0.1360 nu         1 9WH      -0.818600
      2 C13         -0.9580    -1.0350    -0.2070 cc         1 9WH       0.558200
      3 C15         -2.4870    -2.5930    -0.1150 cd         1 9WH      -0.116300
      4 C21         -6.2400     0.2970     1.5650 ca         1 9WH      -0.171000
      5 C22         -6.3810     1.6080     1.1370 ca         1 9WH      -0.082000
      6 C24         -5.1650     1.0970    -0.8600 ca         1 9WH       0.080400
      7 C02          6.7720     0.0200    -1.3580 cc         1 9WH       0.350600
      8 C03          6.9570     1.3040    -0.8070 cc         1 9WH      -0.368300
      9 C04          6.3080     1.2640     0.4090 cd         1 9WH       0.120300
     10 N05          6.2070     2.1960     1.4180 nv         1 9WH      -0.798200
     11 N06          5.8030     0.0130     0.5260 na         1 9WH       0.066400
     12 C08          3.5930    -0.7280     1.1950 cc         1 9WH       0.377700
     13 N09          2.8940    -1.7720     1.4490 nd         1 9WH      -0.275000
     14 N10          1.6170    -1.7040     1.0130 nd         1 9WH      -0.405000
     15 C11          1.3570    -0.5820     0.4100 cc         1 9WH       0.703300
     16 C14         -1.1860    -2.3440     0.2580 cc         1 9WH      -0.299300
     17 N16         -2.9370    -1.4990    -0.7480 na         1 9WH       0.110400
     18 C18         -5.0030    -0.2310    -0.4730 ca         1 9WH      -0.146300
     19 C19         -5.5560    -0.5810     0.7520 ca         1 9WH       0.160900
     20 F20         -5.4130    -1.8510     1.1590 f          1 9WH      -0.139900
     21 C23         -5.8460     2.0160    -0.0750 ca         1 9WH      -0.144000
     22 N26         -2.0200    -0.5330    -0.8080 nd         1 9WH      -0.575800
     23 S27          2.7160     0.5020     0.3360 ss         1 9WH      -0.337800
     24 N28          6.0650    -0.7480    -0.5570 nd         1 9WH      -0.513800
     25 H37          0.0930     0.6670    -0.5710 hn         1 9WH       0.467800
     26 H39         -3.1030    -3.4660     0.0230 h4         1 9WH       0.177000
     27 H40         -4.1660    -0.9470    -2.3180 h1         1 9WH       0.079200
     28 H41         -4.7900    -2.2090    -1.2830 h1         1 9WH       0.079200
     29 H42         -6.6510    -0.0370     2.5080 ha         1 9WH       0.158000
     30 H43         -6.9130     2.3200     1.7520 ha         1 9WH       0.143000
     31 H31          8.3450    -0.3730    -2.7560 hc         1 9WH       0.047700
     32 H30          7.0150    -1.5330    -2.8050 hc         1 9WH       0.047700
     33 H29          6.8190     0.0770    -3.4990 hc         1 9WH       0.047700
     34 H32          7.4820     2.1430    -1.2340 ha         1 9WH       0.162000
     35 H34          6.5940     3.0890     1.1550 hn         1 9WH       0.391300
     36 H33          5.2810     2.3300     1.7980 hn         1 9WH       0.391300
     37 H35          5.4260    -1.5000     1.9010 h1         1 9WH       0.091200
     38 H36          5.0870     0.1310     2.4590 h1         1 9WH       0.091200
     39 H38         -0.5110    -2.9980     0.7790 ha         1 9WH       0.195000
     40 H44         -5.9570     3.0390    -0.4060 ha         1 9WH       0.155000
     41 C17         -4.2590    -1.2590    -1.2800 c3         1 9WH       0.119600
     42 C07          5.0190    -0.5360     1.5970 c3         1 9WH       0.033000
     43 CL1         -4.5140     1.6490    -2.3670 cl         1 9WH      -0.089400
     44 C01          7.2630    -0.4810    -2.6720 c3         1 9WH      -0.122400
@<TRIPOS>BOND
     1     1     2 1   
     2     1    15 1   
     3     1    25 1   
     4     2    16 1   
     5     2    22 2   
     6     3    16 2   
     7     3    17 1   
     8     3    26 1   
     9     4     5 ar  
    10     4    19 ar  
    11     4    29 1   
    12     5    21 ar  
    13     5    30 1   
    14     6    18 ar  
    15     6    21 ar  
    16     6    43 1   
    17     7     8 1   
    18     7    24 2   
    19     7    44 1   
    20     8     9 2   
    21     8    34 1   
    22     9    10 1   
    23     9    11 1   
    24    10    35 1   
    25    10    36 1   
    26    11    24 1   
    27    11    42 1   
    28    12    13 2   
    29    12    23 1   
    30    12    42 1   
    31    13    14 1   
    32    14    15 2   
    33    15    23 1   
    34    16    39 1   
    35    17    22 1   
    36    17    41 1   
    37    18    19 ar  
    38    18    41 1   
    39    19    20 1   
    40    21    40 1   
    41    27    41 1   
    42    28    41 1   
    43    31    44 1   
    44    32    44 1   
    45    33    44 1   
    46    37    42 1   
    47    38    42 1   
@<TRIPOS>SUBSTRUCTURE
     1 9WH         1 TEMP              0 ****  ****    0 ROOT
