@<TRIPOS>MOLECULE
9WI
   46    49     1     0     0
SMALL
No Charge or Current Charge


@<TRIPOS>ATOM
      1 C7         210.7370   -28.0400    37.0050 c3         1 9WI      -0.051800
      2 C8         215.2830   -28.5990    39.4390 c3         1 9WI      -0.044800
      3 C9         214.8090   -27.1870    33.8220 ca         1 9WI       0.171900
      4 C10        211.0370   -30.7630    40.8580 cc         1 9WI      -0.210000
      5 C11        209.8030   -29.9520    39.1230 cd         1 9WI      -0.194100
      6 C12        213.4460   -29.0120    34.0340 ca         1 9WI       0.413900
      7 C18        211.0300   -32.5910    35.5110 ca         1 9WI      -0.040000
      8 N2         214.1870   -28.2280    33.2330 nb         1 9WI      -0.262000
      9 N1         213.7050   -27.6460    37.2930 nu         1 9WI      -0.948900
     10 C03        214.6710   -26.9370    35.1970 ca         1 9WI      -0.326000
     11 C04        213.8620   -27.8090    35.9260 ca         1 9WI       0.410900
     12 N3         213.2540   -28.8520    35.3490 nb         1 9WI      -0.302000
     13 C13        210.0610   -33.0540    34.6030 ca         1 9WI      -0.059000
     14 C02        210.0190   -32.5210    33.3010 ca         1 9WI      -0.040000
     15 C15        210.9360   -31.5250    32.9170 ca         1 9WI      -0.167500
     16 C01        211.8950   -31.0450    33.8250 ca         1 9WI       0.342000
     17 C17        211.9440   -31.5970    35.1200 ca         1 9WI      -0.167500
     18 N5         208.3580   -34.8880    35.3250 n1         1 9WI      -0.455000
     19 N19        207.6870   -32.0200    41.1570 n1         1 9WI      -0.454000
     20 C14        209.7560   -30.7440    40.2520 cc         1 9WI      -0.022700
     21 N0W        211.1220   -29.4830    39.0430 na         1 9WI       0.148100
     22 C0X        211.6450   -28.6300    38.0680 cc         1 9WI      -0.049300
     23 C0V        211.8520   -29.9860    40.0910 cd         1 9WI      -0.114000
     24 C0Y        213.0330   -28.4080    38.2350 cd         1 9WI       0.245000
     25 C0Z        213.8010   -28.9030    39.3110 cc         1 9WI      -0.087300
     26 C0C        213.2230   -29.7050    40.2790 cd         1 9WI      -0.073000
     27 H1         210.4970   -28.7860    36.2380 hc         1 9WI       0.063033
     28 H2         209.7950   -27.6850    37.4400 hc         1 9WI       0.063033
     29 H3         211.1910   -27.1760    36.5060 hc         1 9WI       0.063033
     30 H4         215.4550   -27.5240    39.5720 hc         1 9WI       0.047033
     31 H5         215.7310   -29.1080    40.3010 hc         1 9WI       0.047033
     32 H6         215.8320   -28.9280    38.5490 hc         1 9WI       0.047033
     33 H7         215.4180   -26.5480    33.1850 h4         1 9WI       0.025100
     34 H8         211.3040   -31.3080    41.7620 ha         1 9WI       0.219000
     35 H9         209.0300   -29.7050    38.4050 h4         1 9WI       0.235000
     36 H10        211.0810   -33.0030    36.5180 ha         1 9WI       0.128000
     37 H11        214.4270   -27.0560    37.7000 hn         1 9WI       0.506000
     38 H12        215.1750   -26.0980    35.6660 ha         1 9WI       0.135000
     39 H13        212.8420   -29.9710    32.3820 hn         1 9WI       0.514000
     40 H14        209.2780   -32.8750    32.5860 ha         1 9WI       0.128000
     41 H15        210.8880   -31.1170    31.9120 ha         1 9WI       0.136000
     42 H16        212.6980   -31.2750    35.8310 ha         1 9WI       0.136000
     43 H17        213.7810   -30.1120    41.1160 ha         1 9WI       0.134000
     44 N4         212.7760   -30.0470    33.3960 nu         1 9WI      -0.930900
     45 C16        208.6270   -31.4510    40.7600 cg         1 9WI       0.311700
     46 C19        209.1250   -34.0690    34.9990 cg         1 9WI       0.328000
@<TRIPOS>BOND
     1     1    22 1   
     2     1    27 1   
     3     1    28 1   
     4     1    29 1   
     5     2    25 1   
     6     2    30 1   
     7     2    31 1   
     8     2    32 1   
     9     3     8 ar  
    10     3    10 ar  
    11     3    33 1   
    12     4    20 1   
    13     4    23 2   
    14     4    34 1   
    15     5    20 2   
    16     5    21 1   
    17     5    35 1   
    18     6     8 ar  
    19     6    12 ar  
    20     6    44 1   
    21     7    13 ar  
    22     7    17 ar  
    23     7    36 1   
    24     9    11 1   
    25     9    24 1   
    26     9    37 1   
    27    10    11 ar  
    28    10    38 1   
    29    11    12 ar  
    30    13    14 ar  
    31    13    46 1   
    32    14    15 ar  
    33    14    40 1   
    34    15    16 ar  
    35    15    41 1   
    36    16    17 ar  
    37    16    44 1   
    38    17    42 1   
    39    18    46 3   
    40    19    45 3   
    41    20    45 1   
    42    21    22 1   
    43    21    23 1   
    44    22    24 2   
    45    23    26 1   
    46    24    25 1   
    47    25    26 2   
    48    26    43 1   
    49    39    44 1   
@<TRIPOS>SUBSTRUCTURE
     1 9WI         1 TEMP              0 ****  ****    0 ROOT
