@<TRIPOS>MOLECULE
9WI
   46    49     1     0     0
SMALL
abcg2


@<TRIPOS>ATOM
      1 C7         210.7740   -27.6370    37.2290 c3         1 9WI      -0.051800
      2 C8         215.3230   -28.9480    39.0610 c3         1 9WI      -0.044800
      3 C9         214.7060   -27.1390    33.8300 ca         1 9WI       0.171900
      4 C10        210.9510   -31.2600    40.1810 cc         1 9WI      -0.210000
      5 C11        209.7700   -29.8470    38.8240 cd         1 9WI      -0.194100
      6 C12        213.3800   -28.9380    34.1750 ca         1 9WI       0.413900
      7 C18        210.8720   -32.1030    36.0840 ca         1 9WI      -0.040000
      8 N2         214.0880   -28.2070    33.3020 nb         1 9WI      -0.262000
      9 N1         213.6830   -27.3860    37.3100 nu         1 9WI      -0.948900
     10 C03        214.6340   -26.7880    35.1600 ca         1 9WI      -0.326000
     11 C04        213.8590   -27.6280    35.9800 ca         1 9WI       0.410900
     12 N3         213.2480   -28.7020    35.4740 nb         1 9WI      -0.302000
     13 C13        210.1810   -32.9500    35.2100 ca         1 9WI      -0.059000
     14 C02        210.3730   -32.8120    33.8270 ca         1 9WI      -0.040000
     15 C15        211.2230   -31.8410    33.3420 ca         1 9WI      -0.167500
     16 C01        211.9080   -30.9740    34.2150 ca         1 9WI       0.342000
     17 C17        211.7260   -31.1310    35.5990 ca         1 9WI      -0.167500
     18 N5         208.5720   -34.7360    36.1390 n1         1 9WI      -0.455000
     19 N19        207.4980   -32.2220    40.1770 n1         1 9WI      -0.454000
     20 C14        209.6670   -30.9470    39.6680 cc         1 9WI      -0.022700
     21 N0W        211.0870   -29.4780    38.8060 na         1 9WI       0.148100
     22 C0X        211.6760   -28.4600    38.0770 cc         1 9WI      -0.049300
     23 C0V        211.8320   -30.3390    39.6360 cd         1 9WI      -0.114000
     24 C0Y        213.0330   -28.3220    38.1590 cd         1 9WI       0.245000
     25 C0Z        213.8370   -29.1540    39.0110 cc         1 9WI      -0.087300
     26 C0C        213.2240   -30.1350    39.7350 cd         1 9WI      -0.073000
     27 H1         210.3540   -28.2410    36.4200 hc         1 9WI       0.063033
     28 H2         209.9420   -27.2480    37.8220 hc         1 9WI       0.063033
     29 H3         211.3170   -26.8030    36.7950 hc         1 9WI       0.063033
     30 H4         215.5740   -27.9440    39.4130 hc         1 9WI       0.047033
     31 H5         215.7850   -29.6710    39.7310 hc         1 9WI       0.047033
     32 H6         215.7670   -29.0590    38.0690 hc         1 9WI       0.047033
     33 H7         215.2880   -26.5380    33.1400 h4         1 9WI       0.025100
     34 H8         211.2000   -32.0590    40.8580 ha         1 9WI       0.219000
     35 H9         209.0170   -29.3430    38.2500 h4         1 9WI       0.235000
     36 H10        210.7380   -32.2080    37.1520 ha         1 9WI       0.128000
     37 H11        214.2730   -26.6860    37.7320 hn         1 9WI       0.506000
     38 H12        215.1430   -25.9180    35.5510 ha         1 9WI       0.135000
     39 H13        212.8340   -30.0880    32.6290 hn         1 9WI       0.514000
     40 H14        209.8490   -33.4630    33.1410 ha         1 9WI       0.128000
     41 H15        211.3620   -31.7350    32.2730 ha         1 9WI       0.136000
     42 H16        212.2490   -30.4840    36.2800 ha         1 9WI       0.136000
     43 H17        213.7950   -30.7900    40.3790 ha         1 9WI       0.134000
     44 N4         212.7320   -30.0260    33.6310 nu         1 9WI      -0.930900
     45 C16        208.4690   -31.6430    39.9430 cg         1 9WI       0.311700
     46 C19        209.2950   -33.9380    35.7200 cg         1 9WI       0.328000
@<TRIPOS>BOND
     1     1    22 1   
     2     1    27 1   
     3     1    28 1   
     4     1    29 1   
     5     2    25 1   
     6     2    30 1   
     7     2    31 1   
     8     2    32 1   
     9     3     8 ar  
    10     3    10 ar  
    11     3    33 1   
    12     4    20 1   
    13     4    23 2   
    14     4    34 1   
    15     5    20 2   
    16     5    21 1   
    17     5    35 1   
    18     6     8 ar  
    19     6    12 ar  
    20     6    44 1   
    21     7    13 ar  
    22     7    17 ar  
    23     7    36 1   
    24     9    11 1   
    25     9    24 1   
    26     9    37 1   
    27    10    11 ar  
    28    10    38 1   
    29    11    12 ar  
    30    13    14 ar  
    31    13    46 1   
    32    14    15 ar  
    33    14    40 1   
    34    15    16 ar  
    35    15    41 1   
    36    16    17 ar  
    37    16    44 1   
    38    17    42 1   
    39    18    46 3   
    40    19    45 3   
    41    20    45 1   
    42    21    22 1   
    43    21    23 1   
    44    22    24 2   
    45    23    26 1   
    46    24    25 1   
    47    25    26 2   
    48    26    43 1   
    49    39    44 1   
@<TRIPOS>SUBSTRUCTURE
     1 9WI         1 TEMP              0 ****  ****    0 ROOT
