@<TRIPOS>MOLECULE
9WJ
   29    29     1     0     0
SMALL
bcc


@<TRIPOS>ATOM
      1 O3          -0.0340    -2.3810     0.1240 oh         1 9WJ      -0.559800
      2 C3           0.4750    -1.1970    -0.4270 c6         1 9WJ       0.144100
      3 C4          -0.4320    -0.0440    -0.0010 c6         1 9WJ       0.078700
      4 O7          -2.8540    -0.2960     1.4740 o          1 9WJ      -0.592100
      5 C8          -4.1520    -0.5810    -0.5100 c3         1 9WJ      -0.180100
      6 C5           0.1350     1.2940    -0.5070 c6         1 9WJ       0.153100
      7 O5           1.4810     1.4400    -0.1030 os         1 9WJ      -0.430600
      8 C1           2.3300     0.4290    -0.5860 c6         1 9WJ       0.314900
      9 C2           1.9200    -0.9260    -0.0180 c6         1 9WJ       0.100100
     10 O2           2.0030    -0.9560     1.3820 oh         1 9WJ      -0.564800
     11 N4          -1.7660    -0.2420    -0.5090 ns         1 9WJ      -0.568900
     12 O1           3.6160     0.7070    -0.1670 oh         1 9WJ      -0.585800
     13 H1           0.4590    -3.1240    -0.2380 ho         1 9WJ       0.403000
     14 H2           0.4650    -1.2420    -1.5290 h1         1 9WJ       0.016700
     15 H3          -0.4940    -0.0110     1.0890 h1         1 9WJ       0.129700
     16 H4          -4.0190    -0.6370    -1.5890 hc         1 9WJ       0.058700
     17 H5          -4.6250    -1.5020    -0.1710 hc         1 9WJ       0.058700
     18 H6          -4.8400     0.2360    -0.2930 hc         1 9WJ       0.058700
     19 H10          0.0790     1.2930    -1.6090 h1         1 9WJ       0.018700
     20 H11          2.2610     0.3890    -1.6870 h2         1 9WJ       0.015700
     21 H12          2.5630    -1.6950    -0.4750 h1         1 9WJ       0.036700
     22 H13          2.9040    -0.7370     1.6390 ho         1 9WJ       0.421000
     23 H14         -1.8690    -0.3350    -1.5080 hn         1 9WJ       0.302500
     24 H15          3.9590     1.4640    -0.6550 ho         1 9WJ       0.427000
     25 C6          -0.6350     2.4850     0.0240 c3         1 9WJ      -0.084100
     26 H7          -0.5940     2.5230     1.1130 hc         1 9WJ       0.051033
     27 C7          -2.8680    -0.3640     0.2530 c          1 9WJ       0.676100
     28 H8          -0.2270     3.4150    -0.3710 hc         1 9WJ       0.051033
     29 H9          -1.6800     2.4290    -0.2740 hc         1 9WJ       0.051033
@<TRIPOS>BOND
     1     1     2 1   
     2     1    13 1   
     3     2     3 1   
     4     2     9 1   
     5     2    14 1   
     6     3     6 1   
     7     3    11 1   
     8     3    15 1   
     9     4    27 2   
    10     5    16 1   
    11     5    17 1   
    12     5    18 1   
    13     5    27 1   
    14     6     7 1   
    15     6    19 1   
    16     6    25 1   
    17     7     8 1   
    18     8     9 1   
    19     8    12 1   
    20     8    20 1   
    21     9    10 1   
    22     9    21 1   
    23    10    22 1   
    24    11    23 1   
    25    11    27 1   
    26    12    24 1   
    27    25    26 1   
    28    25    28 1   
    29    25    29 1   
@<TRIPOS>SUBSTRUCTURE
     1 9WJ         1 TEMP              0 ****  ****    0 ROOT
