@<TRIPOS>MOLECULE
9WJ
   29    29     1     0     0
SMALL
No Charge or Current Charge


@<TRIPOS>ATOM
      1 O3           0.0960    -2.5950    -0.0830 oh         1 9WJ      -0.682000
      2 C3           0.4970    -1.3170    -0.6020 c6         1 9WJ       0.167300
      3 C4          -0.4270    -0.1780    -0.0570 c6         1 9WJ       0.078700
      4 O7          -2.8970     0.3950     1.3630 o          1 9WJ      -0.592100
      5 C8          -4.2710    -0.4150    -0.4460 c3         1 9WJ      -0.180100
      6 C5           0.1390     1.2030    -0.5260 c6         1 9WJ       0.176300
      7 O5           1.5150     1.3470    -0.1140 os         1 9WJ      -0.477000
      8 C1           2.3850     0.3730    -0.6880 c6         1 9WJ       0.361300
      9 C2           1.9840    -1.0660    -0.2180 c6         1 9WJ       0.123300
     10 O2           2.1520    -1.2220     1.2110 oh         1 9WJ      -0.687000
     11 N4          -1.8290    -0.3890    -0.4910 ns         1 9WJ      -0.501900
     12 O1           3.6720     0.7120    -0.2060 oh         1 9WJ      -0.708000
     13 H1           0.6230    -2.6860     0.7470 ho         1 9WJ       0.502000
     14 H2           0.4210    -1.3270    -1.6990 h1         1 9WJ       0.016700
     15 H3          -0.3900    -0.2020     1.0420 h1         1 9WJ       0.129700
     16 H4          -4.3010     0.0940    -1.4160 hc         1 9WJ       0.058700
     17 H5          -4.2710    -1.4710    -0.7370 hc         1 9WJ       0.058700
     18 H6          -5.1420    -0.1650     0.1700 hc         1 9WJ       0.058700
     19 H10          0.0950     1.2660    -1.6230 h1         1 9WJ       0.018700
     20 H11          2.3570     0.4460    -1.7850 h2         1 9WJ       0.015700
     21 H12          2.6160    -1.7910    -0.7530 h1         1 9WJ       0.036700
     22 H13          2.8780    -0.5920     1.4410 ho         1 9WJ       0.520000
     23 H14         -1.9880    -0.8180    -1.3950 hn         1 9WJ       0.302500
     24 H15          3.6520     1.6950    -0.1740 ho         1 9WJ       0.526000
     25 C6          -0.6190     2.4210     0.0570 c3         1 9WJ      -0.084100
     26 H7          -0.6540     2.3820     1.1520 hc         1 9WJ       0.051033
     27 C7          -2.9530    -0.0900     0.2430 c          1 9WJ       0.609100
     28 H8          -0.1310     3.3600    -0.2310 hc         1 9WJ       0.051033
     29 H9          -1.6490     2.4640    -0.3130 hc         1 9WJ       0.051033
@<TRIPOS>BOND
     1     1     2 1   
     2     1    13 1   
     3     2     3 1   
     4     2     9 1   
     5     2    14 1   
     6     3     6 1   
     7     3    11 1   
     8     3    15 1   
     9     4    27 2   
    10     5    16 1   
    11     5    17 1   
    12     5    18 1   
    13     5    27 1   
    14     6     7 1   
    15     6    19 1   
    16     6    25 1   
    17     7     8 1   
    18     8     9 1   
    19     8    12 1   
    20     8    20 1   
    21     9    10 1   
    22     9    21 1   
    23    10    22 1   
    24    11    23 1   
    25    11    27 1   
    26    12    24 1   
    27    25    26 1   
    28    25    28 1   
    29    25    29 1   
@<TRIPOS>SUBSTRUCTURE
     1 9WJ         1 TEMP              0 ****  ****    0 ROOT
