@<TRIPOS>MOLECULE
9WK
   44    46     1     0     0
SMALL
bcc


@<TRIPOS>ATOM
      1 C10          1.4850     2.2190     0.4220 ca         1 9WK      -0.096500
      2 C13          2.1960     1.0840    -2.0020 ca         1 9WK      -0.108500
      3 C17         -3.2750     1.7940    -0.5810 c3         1 9WK       0.151300
      4 C20         -5.4470    -1.3270    -0.5270 ca         1 9WK      -0.174000
      5 C21         -5.2020    -1.7920     0.7480 ca         1 9WK       0.152900
      6 C24         -3.7410     0.0250     1.1850 ca         1 9WK       0.066400
      7 C02          5.4620    -1.5240     1.0600 cc         1 9WK       0.353600
      8 C03          5.0040    -2.4000     0.0550 cc         1 9WK      -0.374300
      9 C04          4.6740    -1.5740    -1.0020 cd         1 9WK       0.124300
     10 N05          4.1000    -1.8510    -2.2220 nv         1 9WK      -0.795200
     11 N06          4.9500    -0.3140    -0.6050 na         1 9WK       0.072400
     12 C07          4.6060     0.9110    -1.2870 c3         1 9WK       0.109600
     13 C08          3.1720     1.3050    -1.0400 ca         1 9WK      -0.098300
     14 C09          2.8020     1.8720     0.1780 ca         1 9WK      -0.108500
     15 C11          0.5030     1.9750    -0.5350 ca         1 9WK      -0.139600
     16 C12          0.8700     1.4100    -1.7530 ca         1 9WK      -0.096500
     17 C14         -0.9040     2.3740    -0.2260 c          1 9WK       0.685700
     18 O15         -1.1440     3.3440     0.4770 o          1 9WK      -0.594100
     19 N16         -1.8560     1.5900    -0.7630 ns         1 9WK      -0.570900
     20 C18         -3.9520     0.5410    -0.0930 ca         1 9WK      -0.127300
     21 C19         -4.8120    -0.1620    -0.9300 ca         1 9WK      -0.088000
     22 C23         -4.3570    -1.1360     1.6220 ca         1 9WK      -0.170000
     23 CL2         -2.6930     0.8500     2.2850 cl         1 9WK      -0.080400
     24 N26          5.4230    -0.2710     0.6590 nd         1 9WK      -0.532800
     25 H1           1.2150     2.6720     1.3670 ha         1 9WK       0.142500
     26 H2           2.4680     0.6600    -2.9600 ha         1 9WK       0.140500
     27 H3          -3.4150     2.6120     0.1230 h1         1 9WK       0.069200
     28 H4          -3.7350     2.0980    -1.5240 h1         1 9WK       0.069200
     29 H5          -6.1160    -1.8570    -1.1920 ha         1 9WK       0.156000
     30 H6           6.7960    -2.5790     2.3640 hc         1 9WK       0.046700
     31 H7           6.2820    -1.0020     2.9640 hc         1 9WK       0.046700
     32 H8           5.1750    -2.3750     3.0040 hc         1 9WK       0.046700
     33 H9           4.9390    -3.4750     0.0870 ha         1 9WK       0.161000
     34 H10          4.1340    -2.8310    -2.4550 hn         1 9WK       0.389300
     35 H11          4.4490    -1.3040    -2.9950 hn         1 9WK       0.389300
     36 H12          5.2890     1.6810    -0.9300 h1         1 9WK       0.067200
     37 H13          4.7920     0.7960    -2.3560 h1         1 9WK       0.067200
     38 H14          3.5530     2.0470     0.9390 ha         1 9WK       0.140500
     39 H15          0.1360     1.2420    -2.5310 ha         1 9WK       0.142500
     40 H16         -1.5790     0.7700    -1.2790 hn         1 9WK       0.317500
     41 H17         -4.9910     0.2140    -1.9290 ha         1 9WK       0.138000
     42 H18         -4.1870    -1.5210     2.6190 ha         1 9WK       0.167000
     43 F22         -5.8020    -2.9150     1.1630 f          1 9WK      -0.135900
     44 C01          5.9550    -1.8860     2.4190 c3         1 9WK      -0.121400
@<TRIPOS>BOND
     1     1    14 ar  
     2     1    15 ar  
     3     1    25 1   
     4     2    13 ar  
     5     2    16 ar  
     6     2    26 1   
     7     3    19 1   
     8     3    20 1   
     9     3    27 1   
    10     3    28 1   
    11     4     5 ar  
    12     4    21 ar  
    13     4    29 1   
    14     5    22 ar  
    15     5    43 1   
    16     6    20 ar  
    17     6    22 ar  
    18     6    23 1   
    19     7     8 1   
    20     7    24 2   
    21     7    44 1   
    22     8     9 2   
    23     8    33 1   
    24     9    10 1   
    25     9    11 1   
    26    10    34 1   
    27    10    35 1   
    28    11    12 1   
    29    11    24 1   
    30    12    13 1   
    31    12    36 1   
    32    12    37 1   
    33    13    14 ar  
    34    14    38 1   
    35    15    16 ar  
    36    15    17 1   
    37    16    39 1   
    38    17    18 2   
    39    17    19 1   
    40    19    40 1   
    41    20    21 ar  
    42    21    41 1   
    43    22    42 1   
    44    30    44 1   
    45    31    44 1   
    46    32    44 1   
@<TRIPOS>SUBSTRUCTURE
     1 9WK         1 TEMP              0 ****  ****    0 ROOT
