@<TRIPOS>MOLECULE
9WK
   44    46     1     0     0
SMALL
No Charge or Current Charge


@<TRIPOS>ATOM
      1 C10          1.5000     3.1090    -0.6390 ca         1 9WK      -0.078500
      2 C13          2.1550     0.3870    -0.7780 ca         1 9WK      -0.090500
      3 C17         -3.3560     1.8940    -0.1090 c3         1 9WK       0.151300
      4 C20         -5.5230    -1.1560    -0.9310 ca         1 9WK      -0.156000
      5 C21         -5.5810    -1.8080     0.3090 ca         1 9WK       0.188000
      6 C24         -4.1980    -0.0740     1.2990 ca         1 9WK       0.158000
      7 C02          5.6430    -1.7440     1.0080 cc         1 9WK       0.288300
      8 C03          5.5070    -2.4700    -0.1830 cc         1 9WK      -0.291000
      9 C04          5.1170    -1.5890    -1.1260 cd         1 9WK       0.212000
     10 N05          4.8450    -1.7950    -2.4530 nv         1 9WK      -1.044000
     11 N06          5.0290    -0.3500    -0.4630 na         1 9WK       0.093800
     12 C07          4.6500     0.9540    -1.0450 c3         1 9WK       0.138900
     13 C08          3.1810     1.3510    -0.8640 ca         1 9WK      -0.098300
     14 C09          2.8390     2.7130    -0.7980 ca         1 9WK      -0.090500
     15 C11          0.4660     2.1500    -0.5460 ca         1 9WK      -0.139600
     16 C12          0.8150     0.7800    -0.6190 ca         1 9WK      -0.078500
     17 C14         -0.9680     2.6140    -0.3730 c          1 9WK       0.618700
     18 O15         -1.2690     3.7980    -0.3050 o          1 9WK      -0.594100
     19 N16         -1.9310     1.6340    -0.2930 ns         1 9WK      -0.503900
     20 C18         -4.1340     0.5950     0.0540 ca         1 9WK      -0.127300
     21 C19         -4.8010     0.0430    -1.0600 ca         1 9WK      -0.070000
     22 C23         -4.9210    -1.2710     1.4220 ca         1 9WK      -0.152000
     23 Cl2         -3.3730     0.5610     2.7230 cl         1 9WK      -0.172000
     24 N26          5.3680    -0.4590     0.8870 nd         1 9WK      -0.532800
     25 H1           1.2690     4.1710    -0.5890 ha         1 9WK       0.124500
     26 H2           2.3870    -0.6740    -0.8360 ha         1 9WK       0.122500
     27 H3          -3.5000     2.5360     0.7700 h1         1 9WK       0.069200
     28 H4          -3.7300     2.4450    -0.9830 h1         1 9WK       0.069200
     29 H5          -6.0370    -1.5800    -1.7900 ha         1 9WK       0.138000
     30 H6           7.0630    -2.8320     2.1970 hc         1 9WK       0.046700
     31 H7           6.1020    -1.6570     3.1140 hc         1 9WK       0.046700
     32 H8           5.3660    -3.1790     2.5820 hc         1 9WK       0.046700
     33 H9           5.6850    -3.5320    -0.3020 ha         1 9WK       0.143000
     34 H10          4.8420    -2.7420    -2.8310 hn         1 9WK       0.444500
     35 H11          4.4280    -1.0610    -3.0220 hn         1 9WK       0.444500
     36 H12          5.2870     1.7210    -0.5880 h1         1 9WK       0.067200
     37 H13          4.8860     0.9420    -2.1160 h1         1 9WK       0.067200
     38 H14          3.6130     3.4740    -0.8690 ha         1 9WK       0.122500
     39 H15          0.0600     0.0000    -0.5550 ha         1 9WK       0.124500
     40 H16         -1.6220     0.6740    -0.3550 hn         1 9WK       0.317500
     41 H17         -4.7580     0.5430    -2.0260 ha         1 9WK       0.120000
     42 H18         -4.9680    -1.7840     2.3790 ha         1 9WK       0.149000
     43 F22         -6.2750    -2.9600     0.4300 f          1 9WK      -0.171000
     44 C01          6.0670    -2.3860     2.2970 c3         1 9WK      -0.121400
@<TRIPOS>BOND
     1     1    14 ar  
     2     1    15 ar  
     3     1    25 1   
     4     2    13 ar  
     5     2    16 ar  
     6     2    26 1   
     7     3    19 1   
     8     3    20 1   
     9     3    27 1   
    10     3    28 1   
    11     4     5 ar  
    12     4    21 ar  
    13     4    29 1   
    14     5    22 ar  
    15     5    43 1   
    16     6    20 ar  
    17     6    22 ar  
    18     6    23 1   
    19     7     8 1   
    20     7    24 2   
    21     7    44 1   
    22     8     9 2   
    23     8    33 1   
    24     9    10 1   
    25     9    11 1   
    26    10    34 1   
    27    10    35 1   
    28    11    12 1   
    29    11    24 1   
    30    12    13 1   
    31    12    36 1   
    32    12    37 1   
    33    13    14 ar  
    34    14    38 1   
    35    15    16 ar  
    36    15    17 1   
    37    16    39 1   
    38    17    18 2   
    39    17    19 1   
    40    19    40 1   
    41    20    21 ar  
    42    21    41 1   
    43    22    42 1   
    44    30    44 1   
    45    31    44 1   
    46    32    44 1   
@<TRIPOS>SUBSTRUCTURE
     1 9WK         1 TEMP              0 ****  ****    0 ROOT
