@<TRIPOS>MOLECULE
9WM
   36    36     1     0     0
SMALL
No Charge or Current Charge


@<TRIPOS>ATOM
      1 O1B         22.1380    19.8080    64.9000 o          1 9WM      -0.575500
      2 C1          23.3190    19.9600    64.6080 c          1 9WM       0.692000
      3 O1A         23.9260    21.0120    64.7790 o          1 9WM      -0.575500
      4 C2          24.0450    18.8360    64.0120 c2         1 9WM       0.219900
      5 C3          23.3490    17.4770    63.8460 c6         1 9WM       0.155500
      6 F1          23.4650    16.7170    65.0290 f          1 9WM      -0.222000
      7 C4          23.9440    16.6160    62.7030 c6         1 9WM      -0.137400
      8 O6          25.3930    18.9140    63.6990 os         1 9WM      -0.214100
      9 C6          25.9310    18.1290    62.6080 c6         1 9WM       0.094300
     10 C7          27.4870    18.3410    62.5750 c3         1 9WM       0.154300
     11 C8          27.9130    19.8420    62.4530 c3         1 9WM       0.178300
     12 C9          29.4480    20.0420    62.3010 c3         1 9WM       0.162600
     13 O9          29.8780    19.6290    60.9840 oh         1 9WM      -0.726000
     14 O7          28.1210    17.7370    63.7250 oh         1 9WM      -0.724000
     15 C5          25.4850    16.6420    62.7520 c6         1 9WM       0.077700
     16 N5          26.0420    15.7580    61.7120 ns         1 9WM      -0.506900
     17 C10         27.2500    15.1040    61.7910 c          1 9WM       0.608100
     18 O10         28.0020    15.2520    62.7440 o          1 9WM      -0.618100
     19 C11         27.5830    14.2070    60.6100 c3         1 9WM      -0.171100
     20 O8          27.2880    20.4500    61.3080 oh         1 9WM      -0.656000
     21 H3          22.2740    17.6200    63.6660 h1         1 9WM       0.126700
     22 H4          23.5910    16.9980    61.7340 hc         1 9WM       0.084200
     23 H5          23.5740    15.5840    62.7830 hc         1 9WM       0.084200
     24 H6          25.5210    18.5250    61.6670 h1         1 9WM       0.096700
     25 H7          27.8500    17.8480    61.6620 h1         1 9WM       0.080700
     26 H8          27.5940    20.3580    63.3700 h1         1 9WM       0.068700
     27 H9          29.9750    19.4750    63.0800 h1         1 9WM       0.043700
     28 H10         29.6810    21.1040    62.4600 h1         1 9WM       0.043700
     29 H11         30.8610    19.7120    60.9620 ho         1 9WM       0.505000
     30 H12         28.1760    16.7590    63.5140 ho         1 9WM       0.546000
     31 H13         25.8100    16.2660    63.7360 h1         1 9WM       0.114700
     32 H14         25.4850    15.5730    60.8840 hn         1 9WM       0.325500
     33 H15         26.7740    13.4790    60.4770 hc         1 9WM       0.072033
     34 H16         27.5230    14.7960    59.6880 hc         1 9WM       0.072033
     35 H17         28.5570    13.7170    60.7170 hc         1 9WM       0.072033
     36 H18         27.9730    20.3720    60.6010 ho         1 9WM       0.448000
@<TRIPOS>BOND
     1     1     2 1   
     2     2     3 1   
     3     2     4 2   
     4     4     5 1   
     5     4     8 1   
     6     5     6 1   
     7     5     7 1   
     8     5    21 1   
     9     7    15 1   
    10     7    22 1   
    11     7    23 1   
    12     8     9 1   
    13     9    10 1   
    14     9    15 1   
    15     9    24 1   
    16    10    11 1   
    17    10    14 1   
    18    10    25 1   
    19    11    12 1   
    20    11    20 1   
    21    11    26 1   
    22    12    13 1   
    23    12    27 1   
    24    12    28 1   
    25    13    29 1   
    26    14    30 1   
    27    15    16 1   
    28    15    31 1   
    29    16    17 1   
    30    16    32 1   
    31    17    18 2   
    32    17    19 1   
    33    19    33 1   
    34    19    34 1   
    35    19    35 1   
    36    20    36 1   
@<TRIPOS>SUBSTRUCTURE
     1 9WM         1 TEMP              0 ****  ****    0 ROOT
