@<TRIPOS>MOLECULE
9WM
   36    36     1     0     0
SMALL
abcg2


@<TRIPOS>ATOM
      1 O1B         22.8370    20.4920    63.8550 o          1 9WM      -0.575500
      2 C1          23.6710    20.0350    64.6710 c          1 9WM       0.692000
      3 O1A         24.0230    20.3640    65.7970 o          1 9WM      -0.575500
      4 C2          24.2590    18.8650    63.9180 c2         1 9WM       0.219900
      5 C3          23.4860    17.5680    63.7900 c6         1 9WM       0.155500
      6 F1          23.6710    16.9600    65.0470 f          1 9WM      -0.222000
      7 C4          23.9940    16.6640    62.6970 c6         1 9WM      -0.137400
      8 O6          25.3710    19.0510    63.3530 os         1 9WM      -0.214100
      9 C6          25.9980    18.1040    62.3680 c6         1 9WM       0.094300
     10 C7          27.5010    18.3190    62.4750 c3         1 9WM       0.154300
     11 C8          27.9030    19.8010    62.3890 c3         1 9WM       0.178300
     12 C9          29.4050    19.9590    62.2520 c3         1 9WM       0.162600
     13 O9          29.8480    19.2850    61.0740 oh         1 9WM      -0.726000
     14 O7          28.0220    17.7970    63.6830 oh         1 9WM      -0.724000
     15 C5          25.5180    16.6830    62.6550 c6         1 9WM       0.077700
     16 N5          26.0200    15.7680    61.6540 ns         1 9WM      -0.506900
     17 C10         27.1560    15.0560    61.8030 c          1 9WM       0.608100
     18 O10         27.8870    15.1810    62.7930 o          1 9WM      -0.618100
     19 C11         27.4970    14.0980    60.6940 c3         1 9WM      -0.171100
     20 O8          27.2650    20.4260    61.2740 oh         1 9WM      -0.656000
     21 H3          22.4260    17.7930    63.6870 h1         1 9WM       0.126700
     22 H4          23.5860    17.0090    61.7430 hc         1 9WM       0.084200
     23 H5          23.6240    15.6550    62.8790 hc         1 9WM       0.084200
     24 H6          25.6330    18.4520    61.4030 h1         1 9WM       0.096700
     25 H7          27.9300    17.8050    61.6100 h1         1 9WM       0.080700
     26 H8          27.6110    20.2930    63.3200 h1         1 9WM       0.068700
     27 H9          29.8850    19.5450    63.1420 h1         1 9WM       0.043700
     28 H10         29.6330    21.0280    62.1950 h1         1 9WM       0.043700
     29 H11         30.8110    19.3250    61.0480 ho         1 9WM       0.505000
     30 H12         28.0820    16.8270    63.5690 ho         1 9WM       0.546000
     31 H13         25.9140    16.3650    63.6200 h1         1 9WM       0.114700
     32 H14         25.4820    15.6500    60.8080 hn         1 9WM       0.325500
     33 H15         27.6110    13.1010    61.1210 hc         1 9WM       0.072033
     34 H16         26.7440    14.0720    59.9090 hc         1 9WM       0.072033
     35 H17         28.4570    14.3920    60.2670 hc         1 9WM       0.072033
     36 H18         26.4650    20.8710    61.5780 ho         1 9WM       0.448000
@<TRIPOS>BOND
     1     1     2 1   
     2     2     3 1   
     3     2     4 2   
     4     4     5 1   
     5     4     8 1   
     6     5     6 1   
     7     5     7 1   
     8     5    21 1   
     9     7    15 1   
    10     7    22 1   
    11     7    23 1   
    12     8     9 1   
    13     9    10 1   
    14     9    15 1   
    15     9    24 1   
    16    10    11 1   
    17    10    14 1   
    18    10    25 1   
    19    11    12 1   
    20    11    20 1   
    21    11    26 1   
    22    12    13 1   
    23    12    27 1   
    24    12    28 1   
    25    13    29 1   
    26    14    30 1   
    27    15    16 1   
    28    15    31 1   
    29    16    17 1   
    30    16    32 1   
    31    17    18 2   
    32    17    19 1   
    33    19    33 1   
    34    19    34 1   
    35    19    35 1   
    36    20    36 1   
@<TRIPOS>SUBSTRUCTURE
     1 9WM         1 TEMP              0 ****  ****    0 ROOT
