@<TRIPOS>MOLECULE
9WN
   33    33     1     0     0
SMALL
No Charge or Current Charge


@<TRIPOS>ATOM
      1 C10         -2.7550    -1.0570    -1.4180 c3         1 9WN       0.180600
      2 C01          2.7310    -2.5160     0.5460 c3         1 9WN       0.166600
      3 C02          1.9090    -1.2470     0.1390 c6         1 9WN       0.178300
      4 C03          2.8130     0.0200    -0.0080 c6         1 9WN       0.145300
      5 C04          1.9240     1.2500    -0.3510 c6         1 9WN       0.113300
      6 C05          0.8230     1.4390     0.7320 c6         1 9WN       0.146300
      7 C06          0.0110     0.1020     0.8860 c6         1 9WN       0.356300
      8 C09         -2.1760    -0.5090    -0.0860 c3         1 9WN       0.029300
      9 C12         -3.0220     0.6960     0.4420 c          1 9WN       0.719000
     10 O07          0.8870    -1.0160     1.1520 os         1 9WN      -0.473000
     11 O08         -0.7710    -0.1760    -0.2950 os         1 9WN      -0.467000
     12 O11         -2.7420    -0.0680    -2.4620 oh         1 9WN      -0.693000
     13 O13         -4.1630     0.4780     0.8290 o          1 9WN      -0.713500
     14 O14         -2.4730     1.7890     0.5680 o          1 9WN      -0.713500
     15 O15         -0.0130     2.5790     0.3970 oh         1 9WN      -0.786000
     16 O16          2.7220     2.4450    -0.4650 oh         1 9WN      -0.694000
     17 O17          3.8190    -0.1320    -1.0250 oh         1 9WN      -0.733000
     18 O18          1.9190    -3.6920     0.7470 oh         1 9WN      -0.704000
     19 H1          -2.1670    -1.9320    -1.7230 h1         1 9WN       0.012700
     20 H2          -3.7820    -1.4030    -1.2430 h1         1 9WN       0.012700
     21 H3           3.4740    -2.7120    -0.2380 h1         1 9WN       0.022200
     22 H4           3.2840    -2.2830     1.4660 h1         1 9WN       0.022200
     23 H6           3.2990     0.2060     0.9620 h1         1 9WN       0.034700
     24 H7           1.4190     1.0490    -1.3090 h1         1 9WN       0.069700
     25 H8           1.3200     1.6270     1.6960 h1         1 9WN       0.038700
     26 H9          -0.6610     0.2230     1.7500 h2         1 9WN       0.085700
     27 H10         -2.2550    -1.3100     0.6610 h1         1 9WN       0.032700
     28 H11         -3.0290    -0.5220    -3.2860 ho         1 9WN       0.471000
     29 H13         -0.9750     2.2540     0.4220 ho         1 9WN       0.600000
     30 H14          2.0780     3.1800    -0.3210 ho         1 9WN       0.466000
     31 H15          4.0670     0.7960    -1.2580 ho         1 9WN       0.513000
     32 H16          2.5220    -4.4040     1.0630 ho         1 9WN       0.485000
     33 H5           1.4180    -1.4560    -0.8230 h1         1 9WN       0.074700
@<TRIPOS>BOND
     1     1     8 1   
     2     1    12 1   
     3     1    19 1   
     4     1    20 1   
     5     2     3 1   
     6     2    18 1   
     7     2    21 1   
     8     2    22 1   
     9     3     4 1   
    10     3    10 1   
    11     3    33 1   
    12     4     5 1   
    13     4    17 1   
    14     4    23 1   
    15     5     6 1   
    16     5    16 1   
    17     5    24 1   
    18     6     7 1   
    19     6    15 1   
    20     6    25 1   
    21     7    10 1   
    22     7    11 1   
    23     7    26 1   
    24     8     9 1   
    25     8    11 1   
    26     8    27 1   
    27     9    13 1   
    28     9    14 1   
    29    12    28 1   
    30    15    29 1   
    31    16    30 1   
    32    17    31 1   
    33    18    32 1   
@<TRIPOS>SUBSTRUCTURE
     1 9WN         1 TEMP              0 ****  ****    0 ROOT
