@<TRIPOS>MOLECULE
9WN
   33    33     1     0     0
SMALL
abcg2


@<TRIPOS>ATOM
      1 C10         -2.5490    -1.1190    -1.3330 c3         1 9WN       0.180600
      2 C01          2.6410    -2.4130     0.5400 c3         1 9WN       0.166600
      3 C02          1.8230    -1.2090     0.1210 c6         1 9WN       0.178300
      4 C03          2.7070     0.0270    -0.0610 c6         1 9WN       0.145300
      5 C04          1.8450     1.2570    -0.2990 c6         1 9WN       0.113300
      6 C05          0.8200     1.4020     0.8210 c6         1 9WN       0.146300
      7 C06          0.0090     0.1110     0.9300 c6         1 9WN       0.356300
      8 C09         -2.0870    -0.4510    -0.0550 c3         1 9WN       0.029300
      9 C12         -3.0250     0.7180     0.3250 c          1 9WN       0.719000
     10 O07          0.8570    -0.9840     1.1330 os         1 9WN      -0.473000
     11 O08         -0.7510    -0.0350    -0.2270 os         1 9WN      -0.467000
     12 O11         -2.5980    -0.1600    -2.3640 oh         1 9WN      -0.693000
     13 O13         -4.2140     0.4160     0.4920 o          1 9WN      -0.713500
     14 O14         -2.5260     1.8630     0.4450 o          1 9WN      -0.713500
     15 O15          0.0160     2.5310     0.6240 oh         1 9WN      -0.786000
     16 O16          2.7070     2.3730    -0.3650 oh         1 9WN      -0.694000
     17 O17          3.5740    -0.2220    -1.1430 oh         1 9WN      -0.733000
     18 O18          1.8030    -3.5430     0.5940 oh         1 9WN      -0.704000
     19 H1          -1.8610    -1.9410    -1.5740 h1         1 9WN       0.012700
     20 H2          -3.5290    -1.5670    -1.1430 h1         1 9WN       0.012700
     21 H3           3.4510    -2.5460    -0.1840 h1         1 9WN       0.022200
     22 H4           3.1080    -2.2050     1.5130 h1         1 9WN       0.022200
     23 H6           3.2790     0.1820     0.8700 h1         1 9WN       0.034700
     24 H7           1.3120     1.1300    -1.2540 h1         1 9WN       0.069700
     25 H8           1.3700     1.5120     1.7680 h1         1 9WN       0.038700
     26 H9          -0.6300     0.1450     1.8210 h2         1 9WN       0.085700
     27 H10         -2.1570    -1.2110     0.7380 h1         1 9WN       0.032700
     28 H11         -2.9960    -0.5720    -3.1360 ho         1 9WN       0.471000
     29 H13         -0.9210     2.2480     0.4610 ho         1 9WN       0.600000
     30 H14          2.1710     3.1480    -0.5640 ho         1 9WN       0.466000
     31 H15          4.1200     0.5610    -1.2730 ho         1 9WN       0.513000
     32 H16          2.3550    -4.3120     0.7610 ho         1 9WN       0.485000
     33 H5           1.3310    -1.4340    -0.8360 h1         1 9WN       0.074700
@<TRIPOS>BOND
     1     1     8 1   
     2     1    12 1   
     3     1    19 1   
     4     1    20 1   
     5     2     3 1   
     6     2    18 1   
     7     2    21 1   
     8     2    22 1   
     9     3     4 1   
    10     3    10 1   
    11     3    33 1   
    12     4     5 1   
    13     4    17 1   
    14     4    23 1   
    15     5     6 1   
    16     5    16 1   
    17     5    24 1   
    18     6     7 1   
    19     6    15 1   
    20     6    25 1   
    21     7    10 1   
    22     7    11 1   
    23     7    26 1   
    24     8     9 1   
    25     8    11 1   
    26     8    27 1   
    27     9    13 1   
    28     9    14 1   
    29    12    28 1   
    30    15    29 1   
    31    16    30 1   
    32    17    31 1   
    33    18    32 1   
@<TRIPOS>SUBSTRUCTURE
     1 9WN         1 TEMP              0 ****  ****    0 ROOT
