@<TRIPOS>MOLECULE
9WO
   51    55     1     0     0
SMALL
abcg2


@<TRIPOS>ATOM
      1 CAK          5.1300     0.2390     0.0210 cc         1 9WO      -0.153200
      2 CAZ          5.2980    -1.1740     0.0660 ca         1 9WO      -0.119800
      3 CAH          6.3910    -2.0340    -0.1150 ca         1 9WO      -0.048000
      4 CAB          6.1990    -3.3910     0.0240 ca         1 9WO      -0.145000
      5 CAC          4.9310    -3.9170     0.3390 ca         1 9WO      -0.079000
      6 CAI          3.8360    -3.0990     0.5180 ca         1 9WO      -0.134000
      7 CBA          4.0330    -1.7250     0.3700 ca         1 9WO      -0.033200
      8 NAT          3.1490    -0.6940     0.4790 na         1 9WO      -0.217700
      9 CAX          3.8110     0.4930     0.2810 cd         1 9WO      -0.155300
     10 CAU          3.1680     1.8220     0.3240 c          1 9WO       0.632300
     11 OAA          3.8410     2.8310     0.4840 o          1 9WO      -0.591100
     12 NAR          1.8310     1.8360     0.1840 ns         1 9WO      -0.507900
     13 CBB          1.0480     3.0580     0.2100 c6         1 9WO       0.115700
     14 CAO         -0.3630     2.7120     0.6700 c6         1 9WO       0.177800
     15 CAM          1.0040     3.7440    -1.1540 c6         1 9WO      -0.098400
     16 CAL          0.2630     2.8770    -2.1620 c6         1 9WO      -0.084400
     17 CAN         -1.1080     2.4740    -1.6440 c6         1 9WO       0.203800
     18 NBC         -1.0100     1.8670    -0.3180 nh         1 9WO      -0.790400
     19 CAY         -2.0810     1.1020     0.0750 cc         1 9WO       0.226000
     20 CAJ         -2.9130     0.2750    -0.6630 cd         1 9WO      -0.262000
     21 NAS         -2.5050     0.9960     1.3540 na         1 9WO      -0.036200
     22 NAQ         -3.5330     0.1590     1.5040 nc         1 9WO      -0.516800
     23 CAW         -3.7920    -0.2820     0.2860 cd         1 9WO       0.320500
     24 CAV         -4.8730    -1.2380     0.0550 ca         1 9WO      -0.076500
     25 CAF         -5.1090    -1.7760    -1.2080 ca         1 9WO      -0.146500
     26 CAD         -6.1460    -2.6800    -1.3760 ca         1 9WO       0.328400
     27 NAP         -6.9470    -3.0760    -0.3940 nb         1 9WO      -0.662000
     28 CAE         -6.7220    -2.5610     0.8120 ca         1 9WO       0.328400
     29 CAG         -5.7150    -1.6530     1.0870 ca         1 9WO      -0.146500
     30 H1           5.8840     0.9790    -0.1960 ha         1 9WO       0.220000
     31 H2           7.3690    -1.6360    -0.3560 ha         1 9WO       0.117000
     32 H3           7.0310    -4.0690    -0.1100 ha         1 9WO       0.113000
     33 H4           4.8150    -4.9880     0.4420 ha         1 9WO       0.112000
     34 H5           2.8620    -3.5060     0.7600 ha         1 9WO       0.116000
     35 H6           2.2060    -0.7940     0.8210 hn         1 9WO       0.350000
     36 H7           1.3540     1.0080    -0.1380 hn         1 9WO       0.325500
     37 H8           1.4890     3.7280     0.9490 h1         1 9WO       0.084700
     38 H9          -0.2900     2.1850     1.6220 h1         1 9WO       0.047200
     39 H10         -0.9230     3.6410     0.8450 h1         1 9WO       0.047200
     40 H11          0.4910     4.7040    -1.0390 hc         1 9WO       0.060700
     41 H12          2.0150     3.9680    -1.4970 hc         1 9WO       0.060700
     42 H13          0.1360     3.4130    -3.1040 hc         1 9WO       0.055200
     43 H14          0.8440     1.9800    -2.3900 hc         1 9WO       0.055200
     44 H15         -1.7690     3.3510    -1.6070 h1         1 9WO       0.047700
     45 H16         -1.5590     1.7590    -2.3300 h1         1 9WO       0.047700
     46 H17         -2.8780     0.0930    -1.7230 ha         1 9WO       0.148000
     47 H18         -2.1520     1.4790     2.1640 hn         1 9WO       0.370000
     48 H19         -4.4980    -1.5070    -2.0590 ha         1 9WO       0.129000
     49 H20         -6.3320    -3.1060    -2.3560 h4         1 9WO       0.017600
     50 H21         -7.3810    -2.8880     1.6080 h4         1 9WO       0.017600
     51 H22         -5.5910    -1.2760     2.0920 ha         1 9WO       0.129000
@<TRIPOS>BOND
     1     1     2 1   
     2     1     9 2   
     3     1    30 1   
     4     2     3 ar  
     5     2     7 ar  
     6     3     4 ar  
     7     3    31 1   
     8     4     5 ar  
     9     4    32 1   
    10     5     6 ar  
    11     5    33 1   
    12     6     7 ar  
    13     6    34 1   
    14     7     8 1   
    15     8     9 1   
    16     8    35 1   
    17     9    10 1   
    18    10    11 2   
    19    10    12 1   
    20    12    13 1   
    21    12    36 1   
    22    13    14 1   
    23    13    15 1   
    24    13    37 1   
    25    14    18 1   
    26    14    38 1   
    27    14    39 1   
    28    15    16 1   
    29    15    40 1   
    30    15    41 1   
    31    16    17 1   
    32    16    42 1   
    33    16    43 1   
    34    17    18 1   
    35    17    44 1   
    36    17    45 1   
    37    18    19 1   
    38    19    20 2   
    39    19    21 1   
    40    20    23 1   
    41    20    46 1   
    42    21    22 1   
    43    21    47 1   
    44    22    23 2   
    45    23    24 1   
    46    24    25 ar  
    47    24    29 ar  
    48    25    26 ar  
    49    25    48 1   
    50    26    27 ar  
    51    26    49 1   
    52    27    28 ar  
    53    28    29 ar  
    54    28    50 1   
    55    29    51 1   
@<TRIPOS>SUBSTRUCTURE
     1 9WO         1 TEMP              0 ****  ****    0 ROOT
