@<TRIPOS>MOLECULE
9WO
   51    55     1     0     0
SMALL
No Charge or Current Charge


@<TRIPOS>ATOM
      1 CAK          3.6990    -0.5730     0.0050 cc         1 9WO      -0.153200
      2 CAZ          3.2760    -1.9250     0.2070 ca         1 9WO      -0.119800
      3 CAH          4.0080    -3.1190     0.1880 ca         1 9WO      -0.048000
      4 CAB          3.3060    -4.3220     0.4190 ca         1 9WO      -0.145000
      5 CAC          1.9110    -4.3010     0.6590 ca         1 9WO      -0.079000
      6 CAI          1.2080    -3.0770     0.6700 ca         1 9WO      -0.134000
      7 CBA          1.9300    -1.8980     0.4380 ca         1 9WO      -0.033200
      8 NAT          1.4460    -0.6020     0.4040 na         1 9WO      -0.217700
      9 CAX          2.5680     0.2340     0.1160 cd         1 9WO      -0.155300
     10 CAU          2.6090     1.7180    -0.0490 c          1 9WO       0.632300
     11 OAA          3.6290     2.3640    -0.2510 o          1 9WO      -0.591100
     12 NAR          1.3720     2.2990     0.0430 ns         1 9WO      -0.507900
     13 CBB          1.0450     3.7230    -0.1200 c6         1 9WO       0.115700
     14 CAO         -0.3250     4.0200     0.5680 c6         1 9WO       0.177800
     15 CAM          0.9270     4.0850    -1.6270 c6         1 9WO      -0.098400
     16 CAL         -0.2780     3.3610    -2.2970 c6         1 9WO      -0.084400
     17 CAN         -1.5940     3.5930    -1.5080 c6         1 9WO       0.203800
     18 NBC         -1.4110     3.2160    -0.0780 nh         1 9WO      -0.790400
     19 CAY         -1.7000     1.9390     0.3690 cc         1 9WO       0.226000
     20 CAJ         -2.0740     0.8540    -0.3620 cd         1 9WO      -0.262000
     21 NAS         -1.5600     1.4340     1.6550 na         1 9WO      -0.036200
     22 NAQ         -1.8150     0.0730     1.7530 nc         1 9WO      -0.516800
     23 CAW         -2.1350    -0.2550     0.5110 cd         1 9WO       0.320500
     24 CAV         -2.4660    -1.6480     0.1400 ca         1 9WO      -0.076500
     25 CAF         -2.4770    -2.0710    -1.2060 ca         1 9WO      -0.146500
     26 CAD         -2.7570    -3.4130    -1.5140 ca         1 9WO       0.328400
     27 NAP         -3.0170    -4.3490    -0.5720 nb         1 9WO      -0.662000
     28 CAE         -2.9960    -3.9550     0.7220 ca         1 9WO       0.328400
     29 CAG         -2.7230    -2.6350     1.1170 ca         1 9WO      -0.146500
     30 H1           4.7070    -0.2230    -0.2090 ha         1 9WO       0.220000
     31 H2           5.0790    -3.1200     0.0010 ha         1 9WO       0.117000
     32 H3           3.8400    -5.2690     0.4110 ha         1 9WO       0.113000
     33 H4           1.3770    -5.2330     0.8350 ha         1 9WO       0.112000
     34 H5           0.1380    -3.0510     0.8530 ha         1 9WO       0.116000
     35 H6           0.4900    -0.3190     0.5910 hn         1 9WO       0.350000
     36 H7           0.5900     1.6710     0.1540 hn         1 9WO       0.325500
     37 H8           1.8320     4.3300     0.3520 h1         1 9WO       0.084700
     38 H9          -0.2500     3.7980     1.6430 h1         1 9WO       0.047200
     39 H10         -0.5480     5.0940     0.4830 h1         1 9WO       0.047200
     40 H11          0.8010     5.1720    -1.7290 hc         1 9WO       0.060700
     41 H12          1.8580     3.8330    -2.1530 hc         1 9WO       0.060700
     42 H13         -0.4000     3.7150    -3.3300 hc         1 9WO       0.055200
     43 H14         -0.0770     2.2840    -2.3630 hc         1 9WO       0.055200
     44 H15         -1.8700     4.6560    -1.5780 h1         1 9WO       0.047700
     45 H16         -2.4140     3.0260    -1.9720 h1         1 9WO       0.047700
     46 H17         -2.2640     0.8370    -1.4260 ha         1 9WO       0.148000
     47 H18         -1.3000     1.9830     2.4680 hn         1 9WO       0.370000
     48 H19         -2.2650    -1.3810    -2.0170 ha         1 9WO       0.129000
     49 H20         -2.7710    -3.7520    -2.5490 h4         1 9WO       0.017600
     50 H21         -3.2010    -4.7240     1.4660 h4         1 9WO       0.017600
     51 H22         -2.7180    -2.3910     2.1760 ha         1 9WO       0.129000
@<TRIPOS>BOND
     1     1     2 1   
     2     1     9 2   
     3     1    30 1   
     4     2     3 ar  
     5     2     7 ar  
     6     3     4 ar  
     7     3    31 1   
     8     4     5 ar  
     9     4    32 1   
    10     5     6 ar  
    11     5    33 1   
    12     6     7 ar  
    13     6    34 1   
    14     7     8 1   
    15     8     9 1   
    16     8    35 1   
    17     9    10 1   
    18    10    11 2   
    19    10    12 1   
    20    12    13 1   
    21    12    36 1   
    22    13    14 1   
    23    13    15 1   
    24    13    37 1   
    25    14    18 1   
    26    14    38 1   
    27    14    39 1   
    28    15    16 1   
    29    15    40 1   
    30    15    41 1   
    31    16    17 1   
    32    16    42 1   
    33    16    43 1   
    34    17    18 1   
    35    17    44 1   
    36    17    45 1   
    37    18    19 1   
    38    19    20 2   
    39    19    21 1   
    40    20    23 1   
    41    20    46 1   
    42    21    22 1   
    43    21    47 1   
    44    22    23 2   
    45    23    24 1   
    46    24    25 ar  
    47    24    29 ar  
    48    25    26 ar  
    49    25    48 1   
    50    26    27 ar  
    51    26    49 1   
    52    27    28 ar  
    53    28    29 ar  
    54    28    50 1   
    55    29    51 1   
@<TRIPOS>SUBSTRUCTURE
     1 9WO         1 TEMP              0 ****  ****    0 ROOT
