@<TRIPOS>MOLECULE
9WP
   57    60     1     0     0
SMALL
No Charge or Current Charge


@<TRIPOS>ATOM
      1 C1          -4.9530    -2.0640     0.8860 ca         1 9WP      -0.054000
      2 N1           0.1950    -0.9470    -0.1040 ns         1 9WP      -0.137000
      3 O1          -3.6650     0.0850     3.5700 oh         1 9WP      -0.537100
      4 C2          -4.8190    -1.4140     2.1240 ca         1 9WP      -0.186000
      5 N2          -1.3400     1.5120     0.4120 n3         1 9WP      -0.713600
      6 O2          -3.9690    -2.4400    -1.3220 os         1 9WP      -0.167200
      7 C3          -3.7120    -0.5760     2.3750 ca         1 9WP       0.127100
      8 O3          -0.0630    -1.0920    -2.3810 o          1 9WP      -0.578100
      9 C4          -2.6880    -0.4010     1.4020 ca         1 9WP      -0.082300
     10 C5          -1.6310     0.6970     1.6210 c3         1 9WP       0.218100
     11 C6          -2.7790    -2.0400    -1.9130 cc         1 9WP       0.109900
     12 C7          -2.0060    -1.3350    -1.0040 cd         1 9WP      -0.221400
     13 C8          -2.7950    -1.1760     0.2110 ca         1 9WP      -0.028800
     14 C9          -3.9290    -1.9140    -0.0520 ca         1 9WP       0.014100
     15 C10         -0.5550    -1.0750    -1.2570 c          1 9WP       0.681300
     16 C11          4.3070    -0.2050     0.7190 ca         1 9WP      -0.238300
     17 C12          3.4020    -0.5590     1.7400 ca         1 9WP      -0.029500
     18 C13          2.0520    -0.8060     1.4390 ca         1 9WP      -0.171500
     19 C14          1.5760    -0.7040     0.1200 ca         1 9WP       0.026000
     20 C15          2.4790    -0.3370    -0.9000 ca         1 9WP      -0.171500
     21 C16          3.8300    -0.0880    -0.6030 ca         1 9WP      -0.029500
     22 C18         -2.4860    -2.5580    -3.2960 c3         1 9WP      -0.044900
     23 C19         -2.5380     2.2380    -0.0870 c3         1 9WP       0.168800
     24 C20         -2.6410     2.3930    -1.6210 c3         1 9WP      -0.067400
     25 C21         -1.3400     2.7090    -2.3920 c3         1 9WP      -0.068400
     26 C22         -0.3670     3.6650    -1.6730 c3         1 9WP      -0.068400
     27 C23          0.5280     2.9480    -0.6380 c3         1 9WP      -0.067400
     28 C24         -0.1730     2.4070     0.6290 c3         1 9WP       0.168800
     29 F1           5.9710     1.3860     1.3340 f          1 9WP      -0.116667
     30 F2           6.2160    -0.6300     2.1090 f          1 9WP      -0.116667
     31 F3           6.6000    -0.2230     0.0140 f          1 9WP      -0.116667
     32 H11         -5.8300    -2.6660     0.6600 ha         1 9WP       0.135000
     33 H17         -0.3520    -1.0170     0.7420 hn         1 9WP       0.158000
     34 H14         -4.4570    -0.1600     4.0940 ho         1 9WP       0.467000
     35 H2          -5.6030    -1.5290     2.8700 ha         1 9WP       0.120000
     36 H51         -0.7190     0.2200     2.0000 h1         1 9WP       0.044700
     37 H52         -1.9600     1.3780     2.4160 h1         1 9WP       0.044700
     38 H12          3.7380    -0.6410     2.7730 ha         1 9WP       0.128000
     39 H13          1.3730    -1.0790     2.2430 ha         1 9WP       0.135000
     40 H15          2.1520    -0.2210    -1.9280 ha         1 9WP       0.135000
     41 H16          4.5020     0.2030    -1.4080 ha         1 9WP       0.128000
     42 H54         -3.3520    -3.0880    -3.7100 hc         1 9WP       0.069367
     43 H18         -2.2420    -1.7340    -3.9770 hc         1 9WP       0.069367
     44 H53         -1.6410    -3.2550    -3.2830 hc         1 9WP       0.069367
     45 H19         -3.4610     1.7390     0.2360 h1         1 9WP       0.027450
     46 H55         -2.5710     3.2390     0.3650 h1         1 9WP       0.027450
     47 H20         -3.0630     1.4690    -2.0350 hc         1 9WP       0.040700
     48 H56         -3.3750     3.1800    -1.8290 hc         1 9WP       0.040700
     49 H21         -0.8200     1.7710    -2.6210 hc         1 9WP       0.039450
     50 H57         -1.6150     3.1440    -3.3610 hc         1 9WP       0.039450
     51 H58          0.2880     4.1190    -2.4270 hc         1 9WP       0.039450
     52 H22         -0.9160     4.4890    -1.2000 hc         1 9WP       0.039450
     53 H59          1.0440     2.1180    -1.1330 hc         1 9WP       0.040700
     54 H23          1.3130     3.6430    -0.3170 hc         1 9WP       0.040700
     55 H24         -0.4770     3.2620     1.2490 h1         1 9WP       0.027450
     56 H6A          0.5960     1.8720     1.2020 h1         1 9WP       0.027450
     57 C17          5.7770     0.0800     1.0440 c3         1 9WP       0.361300
@<TRIPOS>BOND
     1     1     4 ar  
     2     1    14 ar  
     3     1    32 1   
     4     2    15 1   
     5     2    19 1   
     6     2    33 1   
     7     3     7 1   
     8     3    34 1   
     9     4     7 ar  
    10     4    35 1   
    11     5    10 1   
    12     5    23 1   
    13     5    28 1   
    14     6    11 1   
    15     6    14 1   
    16     7     9 ar  
    17     8    15 2   
    18     9    10 1   
    19     9    13 ar  
    20    10    36 1   
    21    10    37 1   
    22    11    12 2   
    23    11    22 1   
    24    12    13 1   
    25    12    15 1   
    26    13    14 ar  
    27    16    17 ar  
    28    16    21 ar  
    29    16    57 1   
    30    17    18 ar  
    31    17    38 1   
    32    18    19 ar  
    33    18    39 1   
    34    19    20 ar  
    35    20    21 ar  
    36    20    40 1   
    37    21    41 1   
    38    22    42 1   
    39    22    43 1   
    40    22    44 1   
    41    23    24 1   
    42    23    45 1   
    43    23    46 1   
    44    24    25 1   
    45    24    47 1   
    46    24    48 1   
    47    25    26 1   
    48    25    49 1   
    49    25    50 1   
    50    26    27 1   
    51    26    51 1   
    52    26    52 1   
    53    27    28 1   
    54    27    53 1   
    55    27    54 1   
    56    28    55 1   
    57    28    56 1   
    58    29    57 1   
    59    30    57 1   
    60    31    57 1   
@<TRIPOS>SUBSTRUCTURE
     1 9WP         1 TEMP              0 ****  ****    0 ROOT
