@<TRIPOS>MOLECULE
9WP
   57    60     1     0     0
SMALL
bcc


@<TRIPOS>ATOM
      1 C1          -5.0460    -1.9280     0.7480 ca         1 9WP      -0.072000
      2 N1           0.2850    -1.1660    -0.0920 ns         1 9WP      -0.463100
      3 O1          -3.8710     0.4010     3.3100 oh         1 9WP      -0.498100
      4 C2          -4.9930    -1.1710     1.9030 ca         1 9WP      -0.204000
      5 N2          -1.3620     1.4770     0.3910 n3         1 9WP      -0.713600
      6 O2          -3.8030    -2.5200    -1.2570 os         1 9WP      -0.167200
      7 C3          -3.8870    -0.3560     2.1880 ca         1 9WP       0.127100
      8 O3          -0.1360    -0.5480    -2.2440 o          1 9WP      -0.578100
      9 C4          -2.7840    -0.2790     1.3360 ca         1 9WP      -0.082300
     10 C5          -1.6730     0.7060     1.5870 c3         1 9WP       0.218100
     11 C6          -2.5920    -2.1990    -1.7560 cc         1 9WP       0.109900
     12 C7          -1.9300    -1.3500    -0.9240 cd         1 9WP      -0.221400
     13 C8          -2.8120    -1.0960     0.1950 ca         1 9WP      -0.028800
     14 C9          -3.9440    -1.8650    -0.0770 ca         1 9WP       0.014100
     15 C10         -0.5310    -0.9390    -1.1620 c          1 9WP       0.748300
     16 C11          4.3060    -0.2450     0.6240 ca         1 9WP      -0.238300
     17 C12          3.4910    -0.7800     1.6170 ca         1 9WP      -0.047500
     18 C13          2.1720    -1.0760     1.3450 ca         1 9WP      -0.189500
     19 C14          1.6260    -0.8460     0.0780 ca         1 9WP       0.118600
     20 C15          2.4490    -0.3200    -0.9210 ca         1 9WP      -0.189500
     21 C16          3.7720    -0.0210    -0.6370 ca         1 9WP      -0.047500
     22 C18         -2.2300    -2.8300    -3.0450 c3         1 9WP      -0.044900
     23 C19         -2.4900     2.3130    -0.0110 c3         1 9WP       0.168800
     24 C20         -2.6720     2.4640    -1.5160 c3         1 9WP      -0.067400
     25 C21         -1.4220     2.8500    -2.3100 c3         1 9WP      -0.068400
     26 C22         -0.4030     3.6930    -1.5460 c3         1 9WP      -0.068400
     27 C23          0.4810     2.8550    -0.6260 c3         1 9WP      -0.067400
     28 C24         -0.1710     2.2810     0.6220 c3         1 9WP       0.168800
     29 F1           5.8000     1.3690     1.4550 f          1 9WP      -0.237967
     30 F2           6.2740    -0.6930     1.8320 f          1 9WP      -0.237967
     31 F3           6.5000     0.1210    -0.1490 f          1 9WP      -0.237967
     32 H11         -5.9090    -2.5360     0.5120 ha         1 9WP       0.153000
     33 H17         -0.1520    -1.5990     0.7070 hn         1 9WP       0.324500
     34 H14         -4.7170     0.3390     3.7670 ho         1 9WP       0.428000
     35 H2          -5.8310    -1.1930     2.5900 ha         1 9WP       0.138000
     36 H51         -0.7650     0.1820     1.8990 h1         1 9WP       0.044700
     37 H52         -1.9320     1.3550     2.4340 h1         1 9WP       0.044700
     38 H12          3.8720    -0.9730     2.6110 ha         1 9WP       0.146000
     39 H13          1.5540    -1.4950     2.1310 ha         1 9WP       0.153000
     40 H15          2.0740    -0.1420    -1.9140 ha         1 9WP       0.153000
     41 H16          4.3800     0.3910    -1.4330 ha         1 9WP       0.146000
     42 H54         -2.4410    -3.9000    -3.0260 hc         1 9WP       0.069367
     43 H18         -2.8060    -2.3940    -3.8630 hc         1 9WP       0.069367
     44 H53         -1.1770    -2.6880    -3.2680 hc         1 9WP       0.069367
     45 H19         -3.4140     1.8840     0.3810 h1         1 9WP       0.027450
     46 H55         -2.4060     3.3050     0.4570 h1         1 9WP       0.027450
     47 H20         -3.0750     1.5320    -1.9210 hc         1 9WP       0.040700
     48 H56         -3.4480     3.2220    -1.6610 hc         1 9WP       0.040700
     49 H21         -0.9180     1.9430    -2.6500 hc         1 9WP       0.039450
     50 H57         -1.7340     3.3800    -3.2140 hc         1 9WP       0.039450
     51 H58          0.2480     4.1940    -2.2680 hc         1 9WP       0.039450
     52 H22         -0.8980     4.4950    -0.9870 hc         1 9WP       0.039450
     53 H59          0.9040     2.0340    -1.2090 hc         1 9WP       0.040700
     54 H23          1.3290     3.4570    -0.2860 hc         1 9WP       0.040700
     55 H24         -0.3970     3.1060     1.3230 h1         1 9WP       0.027450
     56 H6A          0.5720     1.6560     1.1250 h1         1 9WP       0.027450
     57 C17          5.7160     0.1320     0.9350 c3         1 9WP       0.725200
@<TRIPOS>BOND
     1     1     4 ar  
     2     1    14 ar  
     3     1    32 1   
     4     2    15 1   
     5     2    19 1   
     6     2    33 1   
     7     3     7 1   
     8     3    34 1   
     9     4     7 ar  
    10     4    35 1   
    11     5    10 1   
    12     5    23 1   
    13     5    28 1   
    14     6    11 1   
    15     6    14 1   
    16     7     9 ar  
    17     8    15 2   
    18     9    10 1   
    19     9    13 ar  
    20    10    36 1   
    21    10    37 1   
    22    11    12 2   
    23    11    22 1   
    24    12    13 1   
    25    12    15 1   
    26    13    14 ar  
    27    16    17 ar  
    28    16    21 ar  
    29    16    57 1   
    30    17    18 ar  
    31    17    38 1   
    32    18    19 ar  
    33    18    39 1   
    34    19    20 ar  
    35    20    21 ar  
    36    20    40 1   
    37    21    41 1   
    38    22    42 1   
    39    22    43 1   
    40    22    44 1   
    41    23    24 1   
    42    23    45 1   
    43    23    46 1   
    44    24    25 1   
    45    24    47 1   
    46    24    48 1   
    47    25    26 1   
    48    25    49 1   
    49    25    50 1   
    50    26    27 1   
    51    26    51 1   
    52    26    52 1   
    53    27    28 1   
    54    27    53 1   
    55    27    54 1   
    56    28    55 1   
    57    28    56 1   
    58    29    57 1   
    59    30    57 1   
    60    31    57 1   
@<TRIPOS>SUBSTRUCTURE
     1 9WP         1 TEMP              0 ****  ****    0 ROOT
