@<TRIPOS>MOLECULE
9WR
   49    51     1     0     0
SMALL
No Charge or Current Charge


@<TRIPOS>ATOM
      1 C01          5.5180    -0.2850    -1.7110 c3         1 9WR       0.144400
      2 O02          4.8570     0.6720    -0.8630 os         1 9WR      -0.324600
      3 C03          3.6920     0.3950    -0.1640 ca         1 9WR       0.141600
      4 C04          3.0910    -0.8820    -0.2660 ca         1 9WR      -0.174000
      5 C05          1.9030    -1.1950     0.4230 ca         1 9WR      -0.085600
      6 C06          1.3010    -2.5870     0.2910 c          1 9WR       0.494200
      7 O07          2.0470    -3.5610     0.1810 o          1 9WR      -0.516100
      8 C08         -0.2220    -2.7580     0.3040 ca         1 9WR       0.282500
      9 C09         -0.7750    -4.0270     0.5860 ca         1 9WR      -0.112000
     10 C10         -2.1680    -4.1930     0.5890 ca         1 9WR      -0.086000
     11 C11         -2.9720    -3.0800     0.3010 ca         1 9WR      -0.132000
     12 C12         -2.3720    -1.8300     0.0050 cp         1 9WR       0.406500
     13 C13         -3.1710    -0.5840    -0.2980 cp         1 9WR      -0.116500
     14 C14         -4.5420    -0.6400    -0.6700 ca         1 9WR      -0.131000
     15 C15         -5.2770     0.5260    -0.9440 ca         1 9WR      -0.077000
     16 C16         -4.6720     1.7930    -0.8580 ca         1 9WR      -0.157300
     17 C17         -5.4960     3.0440    -1.1600 c3         1 9WR      -0.051800
     18 C18         -3.3110     1.8740    -0.4980 ca         1 9WR       0.135100
     19 O19         -2.6850     3.0830    -0.4050 oh         1 9WR      -0.533100
     20 C20         -2.5790     0.7080    -0.2280 ca         1 9WR      -0.111000
     21 N21         -1.0250    -1.6970     0.0070 nb         1 9WR      -0.653000
     22 C22          1.3270    -0.2160     1.2560 ca         1 9WR      -0.174000
     23 C23          1.9020     1.0670     1.3710 ca         1 9WR       0.141600
     24 O24          1.3340     2.0430     2.1770 os         1 9WR      -0.324600
     25 C25          0.1140     1.8360     2.9110 c3         1 9WR       0.144400
     26 C26          3.0860     1.3890     0.6640 ca         1 9WR       0.051100
     27 O27          3.5790     2.6840     0.8430 os         1 9WR      -0.329100
     28 C28          4.7580     3.2160     0.2130 c3         1 9WR       0.149900
     29 H1           4.8590    -0.6030    -2.5290 h1         1 9WR       0.043367
     30 H2           6.4170     0.1600    -2.1550 h1         1 9WR       0.043367
     31 H3           5.8260    -1.1680    -1.1380 h1         1 9WR       0.043367
     32 H4           3.5320    -1.6530    -0.8910 ha         1 9WR       0.133000
     33 H5          -0.1270    -4.8710     0.8090 ha         1 9WR       0.143000
     34 H6          -2.6130    -5.1600     0.8160 ha         1 9WR       0.124000
     35 H7          -4.0510    -3.1880     0.3230 ha         1 9WR       0.127000
     36 H8          -5.0510    -1.5950    -0.7650 ha         1 9WR       0.113000
     37 H9          -6.3240     0.4380    -1.2270 ha         1 9WR       0.112000
     38 H10         -5.5330     3.7140    -0.2920 hc         1 9WR       0.043700
     39 H11         -5.0760     3.6020    -2.0050 hc         1 9WR       0.043700
     40 H12         -6.5320     2.7940    -1.4200 hc         1 9WR       0.043700
     41 H13         -3.3350     3.7810    -0.6290 ho         1 9WR       0.467000
     42 H14         -1.5320     0.8140     0.0460 ha         1 9WR       0.153000
     43 H15          0.4340    -0.4680     1.8190 ha         1 9WR       0.133000
     44 H16         -0.1520     2.7430     3.4690 h1         1 9WR       0.043367
     45 H17         -0.7150     1.6000     2.2330 h1         1 9WR       0.043367
     46 H18          0.2260     1.0160     3.6320 h1         1 9WR       0.043367
     47 H19          4.9110     4.2570     0.5210 h1         1 9WR       0.034033
     48 H20          5.6490     2.6460     0.5040 h1         1 9WR       0.034033
     49 H21          4.6590     3.2020    -0.8800 h1         1 9WR       0.034033
@<TRIPOS>BOND
     1     1     2 1   
     2     1    29 1   
     3     1    30 1   
     4     1    31 1   
     5     2     3 1   
     6     3     4 ar  
     7     3    26 ar  
     8     4     5 ar  
     9     4    32 1   
    10     5     6 1   
    11     5    22 ar  
    12     6     7 2   
    13     6     8 1   
    14     8     9 ar  
    15     8    21 ar  
    16     9    10 ar  
    17     9    33 1   
    18    10    11 ar  
    19    10    34 1   
    20    11    12 ar  
    21    11    35 1   
    22    12    13 1   
    23    12    21 ar  
    24    13    14 ar  
    25    13    20 ar  
    26    14    15 ar  
    27    14    36 1   
    28    15    16 ar  
    29    15    37 1   
    30    16    17 1   
    31    16    18 ar  
    32    17    38 1   
    33    17    39 1   
    34    17    40 1   
    35    18    19 1   
    36    18    20 ar  
    37    19    41 1   
    38    20    42 1   
    39    22    23 ar  
    40    22    43 1   
    41    23    24 1   
    42    23    26 ar  
    43    24    25 1   
    44    25    44 1   
    45    25    45 1   
    46    25    46 1   
    47    26    27 1   
    48    27    28 1   
    49    28    47 1   
    50    28    48 1   
    51    28    49 1   
@<TRIPOS>SUBSTRUCTURE
     1 9WR         1 TEMP              0 ****  ****    0 ROOT
