@<TRIPOS>MOLECULE
9WR
   49    51     1     0     0
SMALL
bcc


@<TRIPOS>ATOM
      1 C01          5.3270    -0.1650    -2.0420 c3         1 9WR       0.121200
      2 O02          4.7090     0.7930    -1.2040 os         1 9WR      -0.301400
      3 C03          3.6020     0.4360    -0.5340 ca         1 9WR       0.141600
      4 C04          3.0070    -0.8170    -0.6040 ca         1 9WR      -0.192000
      5 C05          1.8430    -1.0700     0.1170 ca         1 9WR      -0.085600
      6 C06          1.2750    -2.4420     0.0430 c          1 9WR       0.494200
      7 O07          1.9850    -3.3970    -0.1970 o          1 9WR      -0.516100
      8 C08         -0.1930    -2.6590     0.2470 ca         1 9WR       0.347800
      9 C09         -0.6520    -3.9010     0.6720 ca         1 9WR      -0.195300
     10 C10         -2.0210    -4.0620     0.8170 ca         1 9WR      -0.104000
     11 C11         -2.8660    -3.0060     0.5250 ca         1 9WR      -0.215300
     12 C12         -2.3180    -1.7970     0.0890 cp         1 9WR       0.471800
     13 C13         -3.1460    -0.6110    -0.2260 cp         1 9WR      -0.116500
     14 C14         -4.5350    -0.6800    -0.3220 ca         1 9WR      -0.149000
     15 C15         -5.2660     0.4630    -0.6040 ca         1 9WR      -0.095000
     16 C16         -4.6620     1.7000    -0.7960 ca         1 9WR      -0.157300
     17 C17         -5.4670     2.9310    -1.0940 c3         1 9WR      -0.051800
     18 C18         -3.2660     1.7600    -0.7000 ca         1 9WR       0.135100
     19 O19         -2.5790     2.9100    -0.8690 oh         1 9WR      -0.494100
     20 C20         -2.5240     0.6200    -0.4250 ca         1 9WR      -0.129000
     21 N21         -1.0040    -1.6510    -0.0370 nb         1 9WR      -0.653000
     22 C22          1.2820    -0.0890     0.9310 ca         1 9WR      -0.192000
     23 C23          1.8900     1.1590     1.0200 ca         1 9WR       0.141600
     24 O24          1.4390     2.1690     1.7830 os         1 9WR      -0.301400
     25 C25          0.2430     1.9780     2.5130 c3         1 9WR       0.121200
     26 C26          3.0420     1.4310     0.2760 ca         1 9WR       0.051100
     27 O27          3.6040     2.6610     0.3270 os         1 9WR      -0.305900
     28 C28          4.6120     2.8060     1.3210 c3         1 9WR       0.126700
     29 H1           4.6640    -0.4910    -2.8470 h1         1 9WR       0.043367
     30 H2           6.1940     0.3240    -2.4790 h1         1 9WR       0.043367
     31 H3           5.6620    -1.0410    -1.4820 h1         1 9WR       0.043367
     32 H4           3.4300    -1.5990    -1.2200 ha         1 9WR       0.151000
     33 H5           0.0340    -4.7050     0.8940 ha         1 9WR       0.161000
     34 H6          -2.4280    -5.0030     1.1600 ha         1 9WR       0.142000
     35 H7          -3.9320    -3.1280     0.6500 ha         1 9WR       0.145000
     36 H8          -5.0640    -1.6130    -0.1880 ha         1 9WR       0.131000
     37 H9          -6.3450     0.3930    -0.6790 ha         1 9WR       0.130000
     38 H10         -5.3330     3.7020    -0.3310 hc         1 9WR       0.043700
     39 H11         -5.1980     3.3740    -2.0560 hc         1 9WR       0.043700
     40 H12         -6.5290     2.7000    -1.1320 hc         1 9WR       0.043700
     41 H13         -3.1730     3.6500    -1.0340 ho         1 9WR       0.428000
     42 H14         -1.4460     0.6950    -0.3640 ha         1 9WR       0.171000
     43 H15          0.3940    -0.3060     1.5020 ha         1 9WR       0.151000
     44 H16          0.0580     2.9060     3.0480 h1         1 9WR       0.043367
     45 H17         -0.6080     1.7740     1.8560 h1         1 9WR       0.043367
     46 H18          0.3300     1.1650     3.2380 h1         1 9WR       0.043367
     47 H19          4.9810     3.8280     1.2560 h1         1 9WR       0.034033
     48 H20          4.2150     2.6390     2.3250 h1         1 9WR       0.034033
     49 H21          5.4470     2.1220     1.1520 h1         1 9WR       0.034033
@<TRIPOS>BOND
     1     1     2 1   
     2     1    29 1   
     3     1    30 1   
     4     1    31 1   
     5     2     3 1   
     6     3     4 ar  
     7     3    26 ar  
     8     4     5 ar  
     9     4    32 1   
    10     5     6 1   
    11     5    22 ar  
    12     6     7 2   
    13     6     8 1   
    14     8     9 ar  
    15     8    21 ar  
    16     9    10 ar  
    17     9    33 1   
    18    10    11 ar  
    19    10    34 1   
    20    11    12 ar  
    21    11    35 1   
    22    12    13 1   
    23    12    21 ar  
    24    13    14 ar  
    25    13    20 ar  
    26    14    15 ar  
    27    14    36 1   
    28    15    16 ar  
    29    15    37 1   
    30    16    17 1   
    31    16    18 ar  
    32    17    38 1   
    33    17    39 1   
    34    17    40 1   
    35    18    19 1   
    36    18    20 ar  
    37    19    41 1   
    38    20    42 1   
    39    22    23 ar  
    40    22    43 1   
    41    23    24 1   
    42    23    26 ar  
    43    24    25 1   
    44    25    44 1   
    45    25    45 1   
    46    25    46 1   
    47    26    27 1   
    48    27    28 1   
    49    28    47 1   
    50    28    48 1   
    51    28    49 1   
@<TRIPOS>SUBSTRUCTURE
     1 9WR         1 TEMP              0 ****  ****    0 ROOT
