@<TRIPOS>MOLECULE
9WS
   29    31     1     0     0
SMALL
No Charge or Current Charge


@<TRIPOS>ATOM
      1 C1           1.4820    -0.0350     0.0200 cc         1 9WS      -0.397800
      2 C2           2.8010     0.3120     0.0770 cd         1 9WS      -0.020000
      3 C3           0.2940     0.8410    -0.0200 c          1 9WS       0.668300
      4 C12         -3.2600    -0.4510    -0.1770 ca         1 9WS       0.072000
      5 C13          4.8040     1.5530     0.1700 cc         1 9WS      -0.083000
      6 C14          5.5080     0.2900     0.1860 cc         1 9WS      -0.155000
      7 C16         -2.6670     1.9080    -0.1300 ca         1 9WS      -0.109000
      8 C17         -4.6220    -0.1080    -0.2300 ca         1 9WS      -0.083000
      9 C18         -4.0310     2.2470    -0.1820 ca         1 9WS      -0.088000
     10 C19         -5.0090     1.2410    -0.2320 ca         1 9WS      -0.123000
     11 N4           3.4780    -0.8900     0.0930 na         1 9WS       0.320400
     12 N5           2.6870    -2.0170     0.0500 nd         1 9WS      -0.581100
     13 C6           1.4830    -1.4550     0.0060 cc         1 9WS       0.419500
     14 N7          -0.9020     0.1390    -0.0750 ns         1 9WS      -0.153000
     15 C8          -2.2650     0.5520    -0.1270 ca         1 9WS      -0.012000
     16 C9           3.4260     1.5930     0.1140 cd         1 9WS      -0.091000
     17 C10          4.8720    -0.9510     0.1490 cd         1 9WS      -0.079000
     18 O11          0.3720     2.0610    -0.0050 o          1 9WS      -0.598100
     19 H1           5.3790     2.4740     0.2020 ha         1 9WS       0.129000
     20 H2           6.5930     0.3240     0.2310 ha         1 9WS       0.137000
     21 H3          -1.9430     2.7150    -0.0920 ha         1 9WS       0.139000
     22 H4          -5.3760    -0.8900    -0.2680 ha         1 9WS       0.128000
     23 H5          -4.3300     3.2930    -0.1840 ha         1 9WS       0.119000
     24 H6          -6.0630     1.5060    -0.2720 ha         1 9WS       0.119000
     25 H7           0.6220    -2.1100    -0.0350 h4         1 9WS       0.047800
     26 H8          -0.7910    -0.8650    -0.0810 hn         1 9WS       0.160000
     27 H9           2.8760     2.5280     0.1010 ha         1 9WS       0.162000
     28 H10          5.3470    -1.9240     0.1590 h4         1 9WS       0.163000
     29 Cl15        -2.8150    -2.1590    -0.1760 cl         1 9WS      -0.212000
@<TRIPOS>BOND
     1     1     2 2   
     2     1     3 1   
     3     1    13 1   
     4     2    11 1   
     5     2    16 1   
     6     3    14 1   
     7     3    18 2   
     8     4     8 ar  
     9     4    15 ar  
    10     4    29 1   
    11     5     6 1   
    12     5    16 2   
    13     5    19 1   
    14     6    17 2   
    15     6    20 1   
    16     7     9 ar  
    17     7    15 ar  
    18     7    21 1   
    19     8    10 ar  
    20     8    22 1   
    21     9    10 ar  
    22     9    23 1   
    23    10    24 1   
    24    11    12 1   
    25    11    17 1   
    26    12    13 2   
    27    13    25 1   
    28    14    15 1   
    29    14    26 1   
    30    16    27 1   
    31    17    28 1   
@<TRIPOS>SUBSTRUCTURE
     1 9WS         1 TEMP              0 ****  ****    0 ROOT
