@<TRIPOS>MOLECULE
9WS
   29    31     1     0     0
SMALL
abcg2


@<TRIPOS>ATOM
      1 C1           1.4150    -0.1790    -0.2030 cc         1 9WS      -0.397800
      2 C2           2.7060     0.2870     0.0840 cd         1 9WS      -0.020000
      3 C3           0.1910     0.6010    -0.0670 c          1 9WS       0.668300
      4 C12         -3.2850    -0.3300     0.3430 ca         1 9WS       0.072000
      5 C13          4.6370     1.5440     0.7160 cc         1 9WS      -0.083000
      6 C14          5.4530     0.4310     0.4030 cc         1 9WS      -0.155000
      7 C16         -2.5770     1.6960    -0.7140 ca         1 9WS      -0.109000
      8 C17         -4.5870     0.1390     0.4030 ca         1 9WS      -0.083000
      9 C18         -3.8740     2.1760    -0.6390 ca         1 9WS      -0.088000
     10 C19         -4.8830     1.4020    -0.0830 ca         1 9WS      -0.123000
     11 N4           3.5380    -0.7650    -0.2020 na         1 9WS       0.320400
     12 N5           2.8840    -1.8470    -0.6460 nd         1 9WS      -0.581100
     13 C6           1.6160    -1.4960    -0.6470 cc         1 9WS       0.419500
     14 N7          -0.9660    -0.0920    -0.2940 ns         1 9WS      -0.153000
     15 C8          -2.2560     0.4340    -0.2140 ca         1 9WS      -0.012000
     16 C9           3.2820     1.4800     0.5600 cd         1 9WS      -0.091000
     17 C10          4.8860    -0.7160    -0.0530 cd         1 9WS      -0.079000
     18 O11          0.2030     1.7850     0.2300 o          1 9WS      -0.598100
     19 H1           5.0960     2.4520     1.0810 ha         1 9WS       0.129000
     20 H2           6.5250     0.4770     0.5230 ha         1 9WS       0.137000
     21 H3          -1.8120     2.2990    -1.1790 ha         1 9WS       0.139000
     22 H4          -5.3620    -0.4800     0.8340 ha         1 9WS       0.128000
     23 H5          -4.0990     3.1580    -1.0330 ha         1 9WS       0.119000
     24 H6          -5.8980     1.7720    -0.0310 ha         1 9WS       0.119000
     25 H7           0.8790    -2.2120    -0.9810 h4         1 9WS       0.047800
     26 H8          -0.9020    -1.0950    -0.3710 hn         1 9WS       0.160000
     27 H9           2.6450     2.3190     0.7920 ha         1 9WS       0.162000
     28 H10          5.4290    -1.6110    -0.3160 h4         1 9WS       0.163000
     29 CL15        -2.9330    -1.9080     0.9740 cl         1 9WS      -0.212000
@<TRIPOS>BOND
     1     1     2 2   
     2     1     3 1   
     3     1    13 1   
     4     2    11 1   
     5     2    16 1   
     6     3    14 1   
     7     3    18 2   
     8     4     8 ar  
     9     4    15 ar  
    10     4    29 1   
    11     5     6 1   
    12     5    16 2   
    13     5    19 1   
    14     6    17 2   
    15     6    20 1   
    16     7     9 ar  
    17     7    15 ar  
    18     7    21 1   
    19     8    10 ar  
    20     8    22 1   
    21     9    10 ar  
    22     9    23 1   
    23    10    24 1   
    24    11    12 1   
    25    11    17 1   
    26    12    13 2   
    27    13    25 1   
    28    14    15 1   
    29    14    26 1   
    30    16    27 1   
    31    17    28 1   
@<TRIPOS>SUBSTRUCTURE
     1 9WS         1 TEMP              0 ****  ****    0 ROOT
