@<TRIPOS>MOLECULE
9WT
   56    59     1     0     0
SMALL
abcg2


@<TRIPOS>ATOM
      1 S01          0.1010     1.0050    -0.2890 ss         1 9WT      -0.423000
      2 S02         -4.4090     3.8840     0.4370 ss         1 9WT      -0.094400
      3 O03         -0.2860    -3.2560     0.7210 o          1 9WT      -0.417000
      4 O04          3.2230    -2.5640     1.9740 o          1 9WT      -0.662000
      5 O05          2.8130    -3.5250    -0.0040 o          1 9WT      -0.662000
      6 O06         -3.5330    -0.9750    -2.2070 o          1 9WT      -0.561100
      7 O07         -5.4240    -1.9440     0.0910 os         1 9WT      -0.294000
      8 N08          5.1410     0.2780     0.0390 n4         1 9WT      -0.503000
      9 N09          0.9140    -1.5380    -0.3600 nj         1 9WT      -0.298000
     10 N10         -2.2620    -1.0200    -0.3270 ns         1 9WT      -0.465900
     11 N11         -5.4420    -0.6050     0.2910 n2         1 9WT      -0.293700
     12 N12         -3.1460     1.9540    -0.6790 nc         1 9WT      -0.718000
     13 N13         -2.0910     4.0200    -0.9690 nv         1 9WT      -1.034900
     14 C14          6.3790     0.5860     0.8320 c5         1 9WT       0.096100
     15 C15          5.0780     1.4220    -0.9290 c5         1 9WT       0.096100
     16 C16          3.9490     0.2030     0.9640 c3         1 9WT       0.188800
     17 C17          7.3800     1.1070    -0.1890 c5         1 9WT      -0.101400
     18 C18          6.5240     1.6750    -1.3390 c5         1 9WT      -0.101400
     19 C19          5.3210    -1.0050    -0.6910 c3         1 9WT       0.078900
     20 C20          2.6370    -0.0710     0.2950 c2         1 9WT      -0.356400
     21 C21          0.1400    -0.5890    -1.1340 cy         1 9WT       0.178700
     22 C22         -1.0840    -1.5250    -0.9420 cy         1 9WT       0.034700
     23 C23          2.1300    -1.3180     0.2680 ce         1 9WT       0.092400
     24 C24          1.9190     1.1260    -0.2820 c6         1 9WT       0.120800
     25 C25         -0.1530    -2.3350    -0.0340 c          1 9WT       0.573000
     26 C26          2.7860    -2.5950     0.8140 c          1 9WT       0.704200
     27 C27         -3.3740    -0.7290    -1.0290 c          1 9WT       0.538800
     28 C28         -4.4390    -0.0200    -0.2240 ce         1 9WT       0.286300
     29 C29         -4.2670     1.4240    -0.0990 cc         1 9WT       0.284700
     30 C30         -5.0790     2.2990     0.5480 cd         1 9WT      -0.229000
     31 C31         -3.0730     3.2310    -0.4790 cd         1 9WT       0.700300
     32 C32         -6.5500    -2.5530     0.7030 c3         1 9WT       0.153900
     33 H2          -2.2120    -0.7230     0.6360 hn         1 9WT       0.335500
     34 H3          -1.9240     4.9110    -0.5310 hn         1 9WT       0.479000
     35 H4          -1.2510     3.5300    -1.2400 hn         1 9WT       0.479000
     36 H5           6.1150     1.3550     1.5570 hx         1 9WT       0.093950
     37 H6           6.6950    -0.3070     1.3670 hx         1 9WT       0.093950
     38 H7           4.4170     1.1680    -1.7540 hx         1 9WT       0.093950
     39 H8           4.6650     2.2720    -0.3890 hx         1 9WT       0.093950
     40 H9           4.1780    -0.5710     1.6920 hx         1 9WT       0.099200
     41 H10          3.9190     1.1630     1.4820 hx         1 9WT       0.099200
     42 H11          8.0120     1.8660     0.2680 hc         1 9WT       0.075950
     43 H12          8.0340     0.3110    -0.5420 hc         1 9WT       0.075950
     44 H13          6.7590     1.1850    -2.2830 hc         1 9WT       0.075950
     45 H14          6.6840     2.7420    -1.4820 hc         1 9WT       0.075950
     46 H15          5.4370    -1.8090     0.0310 hx         1 9WT       0.096700
     47 H16          4.4560    -1.1900    -1.3200 hx         1 9WT       0.096700
     48 H17          6.2100    -0.9500    -1.3130 hx         1 9WT       0.096700
     49 H19          0.4920    -0.4720    -2.1590 h2         1 9WT       0.100700
     50 H20         -1.3400    -2.0460    -1.8650 h1         1 9WT       0.124700
     51 H22          2.2390     1.3420    -1.3040 h1         1 9WT       0.047700
     52 H23          2.1500     2.0130     0.3110 h1         1 9WT       0.047700
     53 H24         -6.0000     2.1110     1.0750 h4         1 9WT       0.175000
     54 H25         -6.4620    -3.6170     0.4980 h1         1 9WT       0.044367
     55 H26         -6.5530    -2.3940     1.7820 h1         1 9WT       0.044367
     56 H27         -7.4840    -2.1820     0.2790 h1         1 9WT       0.044367
@<TRIPOS>BOND
     1     1    21 1   
     2     1    24 1   
     3     2    30 1   
     4     2    31 1   
     5     3    25 2   
     6     4    26 1   
     7     5    26 1   
     8     6    27 2   
     9     7    11 1   
    10     7    32 1   
    11     8    14 1   
    12     8    15 1   
    13     8    16 1   
    14     8    19 1   
    15     9    21 1   
    16     9    23 1   
    17     9    25 1   
    18    10    22 1   
    19    10    27 1   
    20    10    33 1   
    21    11    28 2   
    22    12    29 1   
    23    12    31 2   
    24    13    31 1   
    25    13    34 1   
    26    13    35 1   
    27    14    17 1   
    28    14    36 1   
    29    14    37 1   
    30    15    18 1   
    31    15    38 1   
    32    15    39 1   
    33    16    20 1   
    34    16    40 1   
    35    16    41 1   
    36    17    18 1   
    37    17    42 1   
    38    17    43 1   
    39    18    44 1   
    40    18    45 1   
    41    19    46 1   
    42    19    47 1   
    43    19    48 1   
    44    20    23 2   
    45    20    24 1   
    46    21    22 1   
    47    21    49 1   
    48    22    25 1   
    49    22    50 1   
    50    23    26 1   
    51    24    51 1   
    52    24    52 1   
    53    27    28 1   
    54    28    29 1   
    55    29    30 2   
    56    30    53 1   
    57    32    54 1   
    58    32    55 1   
    59    32    56 1   
@<TRIPOS>SUBSTRUCTURE
     1 9WT         1 TEMP              0 ****  ****    0 ROOT
