@<TRIPOS>MOLECULE
9WT
   56    59     1     0     0
SMALL
No Charge or Current Charge


@<TRIPOS>ATOM
      1 S01          0.4680     1.2160    -0.1040 ss         1 9WT      -0.423000
      2 S02         -5.2020     3.3890     0.2380 ss         1 9WT      -0.094400
      3 O03         -0.3980    -2.9240     1.2750 o          1 9WT      -0.417000
      4 O04          4.2600    -2.5830     1.4630 o          1 9WT      -0.662000
      5 O05          2.4780    -3.6180     0.8980 o          1 9WT      -0.662000
      6 O06         -3.2660    -2.6290    -0.5580 o          1 9WT      -0.561100
      7 O07         -6.7000    -1.0900     0.1780 os         1 9WT      -0.294000
      8 N08          5.4570     0.3470    -0.1740 n4         1 9WT      -0.503000
      9 N09          1.0300    -1.2250     0.3330 nj         1 9WT      -0.298000
     10 N10         -2.0660    -0.7210    -0.6200 ns         1 9WT      -0.465900
     11 N11         -5.6530    -1.1460    -0.7650 n2         1 9WT      -0.293700
     12 N12         -3.3770     1.5060     0.3740 nc         1 9WT      -0.718000
     13 N13         -2.5600     3.5030     0.9820 nv         1 9WT      -1.034900
     14 C14          6.8990     0.4910     0.3640 c5         1 9WT       0.096100
     15 C15          5.3770     1.6730    -0.9670 c5         1 9WT       0.096100
     16 C16          4.4590     0.2900     0.9920 c3         1 9WT       0.188800
     17 C17          7.7220     0.9120    -0.8820 c5         1 9WT      -0.101400
     18 C18          6.7160     1.7300    -1.7520 c5         1 9WT      -0.101400
     19 C19          5.2950    -0.8910    -1.0780 c3         1 9WT       0.078900
     20 C20          3.0130    -0.0010     0.6170 c2         1 9WT      -0.356400
     21 C21          0.5350    -0.4810    -0.8230 cy         1 9WT       0.178700
     22 C22         -0.7670    -1.3610    -0.7590 cy         1 9WT       0.034700
     23 C23          2.4460    -1.2550     0.6210 ce         1 9WT       0.092400
     24 C24          2.2820     1.2780     0.1950 c6         1 9WT       0.120800
     25 C25         -0.0970    -2.0330     0.4930 c          1 9WT       0.573000
     26 C26          3.1130    -2.5800     1.0360 c          1 9WT       0.704200
     27 C27         -3.2650    -1.4020    -0.4860 c          1 9WT       0.538800
     28 C28         -4.5470    -0.5780    -0.3650 ce         1 9WT       0.286300
     29 C29         -4.5270     0.8850    -0.0810 cc         1 9WT       0.284700
     30 C30         -5.6070     1.7410    -0.2130 cd         1 9WT      -0.229000
     31 C31         -3.5970     2.7770     0.5600 cd         1 9WT       0.700300
     32 C32         -7.8750    -1.7360    -0.3440 c3         1 9WT       0.153900
     33 H2          -2.1190     0.2890    -0.4940 hn         1 9WT       0.335500
     34 H3          -2.7630     4.3650     1.4720 hn         1 9WT       0.479000
     35 H4          -1.7580     2.9700     1.2930 hn         1 9WT       0.479000
     36 H5           6.8910     1.2670     1.1340 hx         1 9WT       0.093950
     37 H6           7.2200    -0.4500     0.8190 hx         1 9WT       0.093950
     38 H7           4.4910     1.6690    -1.6060 hx         1 9WT       0.093950
     39 H8           5.2860     2.4870    -0.2430 hx         1 9WT       0.093950
     40 H9           4.8210    -0.4660     1.6900 hx         1 9WT       0.099200
     41 H10          4.5180     1.2470     1.5160 hx         1 9WT       0.099200
     42 H11          8.6060     1.4950    -0.6020 hc         1 9WT       0.075950
     43 H12          8.0820     0.0310    -1.4260 hc         1 9WT       0.075950
     44 H13          6.6050     1.2780    -2.7440 hc         1 9WT       0.075950
     45 H14          7.0430     2.7640    -1.9090 hc         1 9WT       0.075950
     46 H15          5.4860    -1.7900    -0.4890 hx         1 9WT       0.096700
     47 H16          4.2770    -0.9150    -1.4700 hx         1 9WT       0.096700
     48 H17          6.0060    -0.8370    -1.9040 hx         1 9WT       0.096700
     49 H19          1.1530    -0.5230    -1.7260 h2         1 9WT       0.100700
     50 H20         -0.8190    -2.0730    -1.5890 h1         1 9WT       0.124700
     51 H22          2.7130     1.6260    -0.7510 h1         1 9WT       0.047700
     52 H23          2.4590     2.0720     0.9350 h1         1 9WT       0.047700
     53 H24         -6.6080     1.4950    -0.5440 h4         1 9WT       0.175000
     54 H25         -8.6900    -1.6940     0.3890 h1         1 9WT       0.044367
     55 H26         -8.2170    -1.2430    -1.2630 h1         1 9WT       0.044367
     56 H27         -7.6740    -2.7920    -0.5680 h1         1 9WT       0.044367
@<TRIPOS>BOND
     1     1    21 1   
     2     1    24 1   
     3     2    30 1   
     4     2    31 1   
     5     3    25 2   
     6     4    26 1   
     7     5    26 1   
     8     6    27 2   
     9     7    11 1   
    10     7    32 1   
    11     8    14 1   
    12     8    15 1   
    13     8    16 1   
    14     8    19 1   
    15     9    21 1   
    16     9    23 1   
    17     9    25 1   
    18    10    22 1   
    19    10    27 1   
    20    10    33 1   
    21    11    28 2   
    22    12    29 1   
    23    12    31 2   
    24    13    31 1   
    25    13    34 1   
    26    13    35 1   
    27    14    17 1   
    28    14    36 1   
    29    14    37 1   
    30    15    18 1   
    31    15    38 1   
    32    15    39 1   
    33    16    20 1   
    34    16    40 1   
    35    16    41 1   
    36    17    18 1   
    37    17    42 1   
    38    17    43 1   
    39    18    44 1   
    40    18    45 1   
    41    19    46 1   
    42    19    47 1   
    43    19    48 1   
    44    20    23 2   
    45    20    24 1   
    46    21    22 1   
    47    21    49 1   
    48    22    25 1   
    49    22    50 1   
    50    23    26 1   
    51    24    51 1   
    52    24    52 1   
    53    27    28 1   
    54    28    29 1   
    55    29    30 2   
    56    30    53 1   
    57    32    54 1   
    58    32    55 1   
    59    32    56 1   
@<TRIPOS>SUBSTRUCTURE
     1 9WT         1 TEMP              0 ****  ****    0 ROOT
