@<TRIPOS>MOLECULE
9WU
   70    75     1     0     0
SMALL
abcg2


@<TRIPOS>ATOM
      1 N12        -20.7820    -8.2110    55.4190 nc         1 9WU      -0.316000
      2 C13        -21.2030    -9.4790    55.4390 cd         1 9WU       0.458900
      3 C15        -19.0130   -10.0860    56.3680 c6         1 9WU       0.203800
      4 C20        -15.5200   -13.9570    57.3810 ca         1 9WU       0.167400
      5 C21        -15.9040   -15.2610    57.6710 ca         1 9WU      -0.284300
      6 C22        -14.9810   -16.3290    58.2570 c3         1 9WU       0.265000
      7 C26        -14.4970   -19.5600    56.3030 ce         1 9WU      -0.304200
      8 C01        -27.3160   -14.4150    52.7690 c3         1 9WU       0.078900
      9 C04        -26.6780   -10.9630    52.7500 cc         1 9WU       0.252900
     10 C05        -25.6050   -12.7310    53.5110 cd         1 9WU      -0.159000
     11 C06        -25.4950   -11.3500    53.4210 cc         1 9WU      -0.133800
     12 C07        -24.4170   -10.5050    53.9070 cc         1 9WU      -0.045200
     13 C08        -24.3700    -9.1150    53.8290 cd         1 9WU      -0.159100
     14 C11        -21.5930    -7.2680    54.9090 cc         1 9WU       0.133900
     15 C16        -18.0700   -11.1450    55.8040 c6         1 9WU       0.210300
     16 C18        -17.6240   -13.4130    56.6730 ca         1 9WU       0.393900
     17 C23        -15.5620   -16.7940    59.6080 c3         1 9WU      -0.095100
     18 C27        -13.8890   -20.7400    56.2670 c2         1 9WU      -0.229000
     19 C29        -13.5530   -15.7890    58.3990 ca         1 9WU      -0.102300
     20 C30        -13.0940   -15.2480    59.5980 ca         1 9WU      -0.070500
     21 C31        -11.8150   -14.7080    59.7030 ca         1 9WU      -0.147500
     22 C32        -11.0040   -14.7140    58.5860 ca         1 9WU       0.170000
     23 C34        -11.4220   -15.2350    57.3750 ca         1 9WU      -0.147500
     24 C35        -12.7020   -15.7690    57.2930 ca         1 9WU      -0.070500
     25 C36        -17.2440   -15.5410    57.3990 ca         1 9WU       0.167400
     26 C38        -19.8780   -12.7970    55.8760 c6         1 9WU       0.210300
     27 C39        -20.7910   -11.7240    56.4570 c6         1 9WU       0.203800
     28 C40        -22.4730    -9.8020    54.8520 cd         1 9WU      -0.251000
     29 C41        -23.2290   -10.9320    54.5390 cc         1 9WU      -0.198000
     30 F33         -9.7540   -14.1910    58.6800 f          1 9WU      -0.183000
     31 N02        -26.7720   -13.0810    52.9280 na         1 9WU       0.117800
     32 N03        -27.4420   -12.0120    52.4550 nd         1 9WU      -0.522800
     33 N09        -23.2070    -8.7030    54.3850 na         1 9WU       0.273900
     34 N10        -22.7910    -7.4080    54.4080 nd         1 9WU      -0.297800
     35 N14        -20.3900   -10.4020    55.9940 nh         1 9WU      -0.779300
     36 N17        -18.4920   -12.4840    56.1930 nh         1 9WU      -0.781300
     37 N19        -16.3480   -13.0400    56.8900 nb         1 9WU      -0.249000
     38 N24        -14.9980   -17.4590    57.3050 ns         1 9WU      -0.516900
     39 N37        -18.0970   -14.6560    56.9070 nb         1 9WU      -0.249000
     40 O28        -13.6450   -18.8960    58.4390 o          1 9WU      -0.598100
     41 H1         -18.9350   -10.0590    57.4590 h1         1 9WU       0.072200
     42 H2         -18.7510    -9.1110    55.9740 h1         1 9WU       0.072200
     43 H3         -14.5010   -13.6290    57.5490 h4         1 9WU       0.029600
     44 H4         -15.1370   -19.2390    55.4870 ha         1 9WU       0.173000
     45 H5         -28.3020   -14.4700    53.2270 h1         1 9WU       0.055700
     46 H6         -27.3940   -14.6640    51.7110 h1         1 9WU       0.055700
     47 H7         -26.6480   -15.1200    53.2590 h1         1 9WU       0.055700
     48 H8         -26.9960    -9.9680    52.4750 h4         1 9WU       0.038100
     49 H9         -24.9510   -13.4700    53.9420 h4         1 9WU       0.149000
     50 H10        -25.0600    -8.4010    53.4140 h4         1 9WU       0.236000
     51 H11        -21.2210    -6.2490    54.9250 h5         1 9WU       0.054100
     52 H12        -18.0660   -11.0730    54.7100 h1         1 9WU       0.072950
     53 H13        -17.0640   -10.9690    56.1670 h1         1 9WU       0.072950
     54 H14        -15.7190   -15.9410    60.2660 hc         1 9WU       0.052367
     55 H15        -16.5250   -17.2730    59.4400 hc         1 9WU       0.052367
     56 H16        -14.8960   -17.5050    60.0890 hc         1 9WU       0.052367
     57 H17        -14.0120   -21.4130    55.4280 ha         1 9WU       0.178500
     58 H18        -13.2500   -21.0580    57.0820 ha         1 9WU       0.178500
     59 H19        -13.7260   -15.2370    60.4730 ha         1 9WU       0.119000
     60 H20        -11.4560   -14.2910    60.6350 ha         1 9WU       0.133500
     61 H21        -10.7610   -15.2230    56.5190 ha         1 9WU       0.133500
     62 H22        -13.0380   -16.1770    56.3500 ha         1 9WU       0.119000
     63 H23        -17.6460   -16.5340    57.5790 h4         1 9WU       0.029600
     64 H24        -20.0070   -12.8390    54.7880 h1         1 9WU       0.072950
     65 H25        -20.1310   -13.7640    56.2950 h1         1 9WU       0.072950
     66 H26        -20.7010   -11.7360    57.5490 h1         1 9WU       0.072200
     67 H27        -21.8230   -11.9250    56.2110 h1         1 9WU       0.072200
     68 H28        -22.9620   -11.9590    54.7120 ha         1 9WU       0.196000
     69 H29        -15.4720   -17.3050    56.4290 hn         1 9WU       0.312500
     70 C25        -14.3300   -18.6250    57.4530 c          1 9WU       0.598300
@<TRIPOS>BOND
     1     1     2 2   
     2     1    14 1   
     3     2    28 1   
     4     2    35 1   
     5     3    15 1   
     6     3    35 1   
     7     3    41 1   
     8     3    42 1   
     9     4     5 ar  
    10     4    37 ar  
    11     4    43 1   
    12     5     6 1   
    13     5    25 ar  
    14     6    17 1   
    15     6    19 1   
    16     6    38 1   
    17     7    18 2   
    18     7    44 1   
    19     7    70 1   
    20     8    31 1   
    21     8    45 1   
    22     8    46 1   
    23     8    47 1   
    24     9    11 1   
    25     9    32 2   
    26     9    48 1   
    27    10    11 2   
    28    10    31 1   
    29    10    49 1   
    30    11    12 1   
    31    12    13 2   
    32    12    29 1   
    33    13    33 1   
    34    13    50 1   
    35    14    34 2   
    36    14    51 1   
    37    15    36 1   
    38    15    52 1   
    39    15    53 1   
    40    16    36 1   
    41    16    37 ar  
    42    16    39 ar  
    43    17    54 1   
    44    17    55 1   
    45    17    56 1   
    46    18    57 1   
    47    18    58 1   
    48    19    20 ar  
    49    19    24 ar  
    50    20    21 ar  
    51    20    59 1   
    52    21    22 ar  
    53    21    60 1   
    54    22    23 ar  
    55    22    30 1   
    56    23    24 ar  
    57    23    61 1   
    58    24    62 1   
    59    25    39 ar  
    60    25    63 1   
    61    26    27 1   
    62    26    36 1   
    63    26    64 1   
    64    26    65 1   
    65    27    35 1   
    66    27    66 1   
    67    27    67 1   
    68    28    29 2   
    69    28    33 1   
    70    29    68 1   
    71    31    32 1   
    72    33    34 1   
    73    38    69 1   
    74    38    70 1   
    75    40    70 2   
@<TRIPOS>SUBSTRUCTURE
     1 9WU         1 TEMP              0 ****  ****    0 ROOT
