@<TRIPOS>MOLECULE
9WU
   70    75     1     0     0
SMALL
No Charge or Current Charge


@<TRIPOS>ATOM
      1 N12        -21.5170    -8.0780    56.2900 nc         1 9WU      -0.316000
      2 C13        -21.6530    -9.3200    55.8480 cd         1 9WU       0.458900
      3 C15        -19.3010    -9.8500    56.5840 c6         1 9WU       0.203800
      4 C20        -15.4990   -13.8560    57.7180 ca         1 9WU       0.167400
      5 C21        -15.8700   -15.1750    58.0540 ca         1 9WU      -0.284300
      6 C22        -14.8430   -16.2400    58.4610 c3         1 9WU       0.265000
      7 C26        -15.2570   -19.8120    57.1940 ce         1 9WU      -0.304200
      8 C01        -25.9110   -14.5340    51.2670 c3         1 9WU       0.078900
      9 C04        -26.2790   -11.1510    52.1740 cc         1 9WU       0.252900
     10 C05        -24.7690   -12.7090    52.6540 cd         1 9WU      -0.159000
     11 C06        -25.0940   -11.4080    52.8800 cc         1 9WU      -0.133800
     12 C07        -24.3480   -10.4920    53.6920 cc         1 9WU      -0.045200
     13 C08        -24.7060    -9.1730    53.8960 cd         1 9WU      -0.159100
     14 C11        -22.5200    -7.1910    55.9040 cc         1 9WU       0.133900
     15 C16        -18.2590   -11.0010    56.4010 c6         1 9WU       0.210300
     16 C18        -17.7070   -13.2910    57.3990 ca         1 9WU       0.393900
     17 C23        -14.9190   -16.3730    60.0050 c3         1 9WU      -0.095100
     18 C27        -14.7710   -21.0750    57.1020 c2         1 9WU      -0.229000
     19 C29        -13.4380   -15.8580    57.9300 ca         1 9WU      -0.102300
     20 C30        -12.3710   -15.4790    58.7840 ca         1 9WU      -0.070500
     21 C31        -11.1180   -15.1290    58.2500 ca         1 9WU      -0.147500
     22 C32        -10.9140   -15.1490    56.8640 ca         1 9WU       0.170000
     23 C34        -11.9570   -15.5130    56.0040 ca         1 9WU      -0.147500
     24 C35        -13.2110   -15.8640    56.5330 ca         1 9WU      -0.070500
     25 C36        -17.2530   -15.4480    58.0560 ca         1 9WU       0.167400
     26 C38        -20.1050   -12.6780    56.7570 c6         1 9WU       0.210300
     27 C39        -21.1070   -11.4960    56.9480 c6         1 9WU       0.203800
     28 C40        -22.7660    -9.6380    55.0340 cd         1 9WU      -0.251000
     29 C41        -23.1410   -10.7900    54.3910 cc         1 9WU      -0.198000
     30 F33         -9.7090   -14.8110    56.3560 f          1 9WU      -0.183000
     31 N02        -25.7880   -13.1750    51.8130 na         1 9WU       0.117800
     32 N03        -26.7330   -12.1980    51.5130 nd         1 9WU      -0.522800
     33 N09        -23.6990    -8.6960    54.7220 na         1 9WU       0.273900
     34 N10        -23.6130    -7.3940    55.1480 nd         1 9WU      -0.297800
     35 N14        -20.6880   -10.2670    56.2060 nh         1 9WU      -0.779300
     36 N17        -18.6700   -12.3040    57.0470 nh         1 9WU      -0.781300
     37 N19        -16.4100   -12.9220    57.3880 nb         1 9WU      -0.249000
     38 N24        -15.2460   -17.5040    57.8440 ns         1 9WU      -0.516900
     39 N37        -18.1660   -14.5170    57.7250 nb         1 9WU      -0.249000
     40 O28        -13.5900   -18.8840    58.6210 o          1 9WU      -0.598100
     41 H1         -19.2820    -9.5250    57.6350 h1         1 9WU       0.072200
     42 H2         -18.9750    -8.9910    55.9790 h1         1 9WU       0.072200
     43 H3         -14.4620   -13.5250    57.7180 h4         1 9WU       0.029600
     44 H4         -16.1750   -19.5460    56.6700 ha         1 9WU       0.173000
     45 H5         -26.8570   -14.9780    51.6000 h1         1 9WU       0.055700
     46 H6         -25.8930   -14.4920    50.1720 h1         1 9WU       0.055700
     47 H7         -25.0770   -15.1530    51.6190 h1         1 9WU       0.055700
     48 H8         -26.8290   -10.2210    52.1230 h4         1 9WU       0.038100
     49 H9         -23.9440   -13.3220    52.9980 h4         1 9WU       0.149000
     50 H10        -25.5310    -8.5680    53.5410 h4         1 9WU       0.236000
     51 H11        -22.3600    -6.1920    56.2920 h5         1 9WU       0.054100
     52 H12        -18.1060   -11.1590    55.3240 h1         1 9WU       0.072950
     53 H13        -17.3060   -10.6360    56.8090 h1         1 9WU       0.072950
     54 H14        -14.7600   -15.4010    60.4860 hc         1 9WU       0.052367
     55 H15        -15.9060   -16.7360    60.3140 hc         1 9WU       0.052367
     56 H16        -14.1700   -17.0720    60.3920 hc         1 9WU       0.052367
     57 H17        -15.2800   -21.8460    56.5200 ha         1 9WU       0.178500
     58 H18        -13.8510   -21.3790    57.6060 ha         1 9WU       0.178500
     59 H19        -12.4930   -15.4470    59.8630 ha         1 9WU       0.119000
     60 H20        -10.3050   -14.8420    58.9110 ha         1 9WU       0.133500
     61 H21        -11.7950   -15.5230    54.9290 ha         1 9WU       0.133500
     62 H22        -14.0140   -16.1370    55.8520 ha         1 9WU       0.119000
     63 H23        -17.6450   -16.4260    58.3310 h4         1 9WU       0.029600
     64 H24        -20.1900   -13.0410    55.7220 h1         1 9WU       0.072950
     65 H25        -20.4460   -13.4940    57.4110 h1         1 9WU       0.072950
     66 H26        -21.1700   -11.2710    58.0230 h1         1 9WU       0.072200
     67 H27        -22.1090   -11.8280    56.6440 h1         1 9WU       0.072200
     68 H28        -22.6240   -11.7450    54.3860 ha         1 9WU       0.196000
     69 H29        -16.0620   -17.4890    57.2490 hn         1 9WU       0.312500
     70 C25        -14.6050   -18.7150    57.9640 c          1 9WU       0.598300
@<TRIPOS>BOND
     1     1     2 2   
     2     1    14 1   
     3     2    28 1   
     4     2    35 1   
     5     3    15 1   
     6     3    35 1   
     7     3    41 1   
     8     3    42 1   
     9     4     5 ar  
    10     4    37 ar  
    11     4    43 1   
    12     5     6 1   
    13     5    25 ar  
    14     6    17 1   
    15     6    19 1   
    16     6    38 1   
    17     7    18 2   
    18     7    44 1   
    19     7    70 1   
    20     8    31 1   
    21     8    45 1   
    22     8    46 1   
    23     8    47 1   
    24     9    11 1   
    25     9    32 2   
    26     9    48 1   
    27    10    11 2   
    28    10    31 1   
    29    10    49 1   
    30    11    12 1   
    31    12    13 2   
    32    12    29 1   
    33    13    33 1   
    34    13    50 1   
    35    14    34 2   
    36    14    51 1   
    37    15    36 1   
    38    15    52 1   
    39    15    53 1   
    40    16    36 1   
    41    16    37 ar  
    42    16    39 ar  
    43    17    54 1   
    44    17    55 1   
    45    17    56 1   
    46    18    57 1   
    47    18    58 1   
    48    19    20 ar  
    49    19    24 ar  
    50    20    21 ar  
    51    20    59 1   
    52    21    22 ar  
    53    21    60 1   
    54    22    23 ar  
    55    22    30 1   
    56    23    24 ar  
    57    23    61 1   
    58    24    62 1   
    59    25    39 ar  
    60    25    63 1   
    61    26    27 1   
    62    26    36 1   
    63    26    64 1   
    64    26    65 1   
    65    27    35 1   
    66    27    66 1   
    67    27    67 1   
    68    28    29 2   
    69    28    33 1   
    70    29    68 1   
    71    31    32 1   
    72    33    34 1   
    73    38    69 1   
    74    38    70 1   
    75    40    70 2   
@<TRIPOS>SUBSTRUCTURE
     1 9WU         1 TEMP              0 ****  ****    0 ROOT
