@<TRIPOS>MOLECULE
9WV
   24    23     1     0     0
SMALL
No Charge or Current Charge


@<TRIPOS>ATOM
      1 NDV         -0.4480     2.5440    -0.3140 n8         1 9WV      -1.001200
      2 CB          -1.5090     1.5750    -0.6710 c3         1 9WV       0.142800
      3 CA          -1.3940     0.2330     0.0960 c3         1 9WV      -0.039300
      4 N           -0.0780    -0.4340    -0.1020 ns         1 9WV      -0.449900
      5 CEG          0.9890    -0.3720     0.7680 c          1 9WV       0.602100
      6 OEK          0.9240     0.1780     1.8600 o          1 9WV      -0.663100
      7 CEH          2.2480    -1.1010     0.2950 c3         1 9WV      -0.166400
      8 CEI          3.3270    -0.0870    -0.1150 c3         1 9WV       0.156800
      9 NEJ          4.5390    -0.7770    -0.5960 n8         1 9WV      -1.004200
     10 C           -2.5530    -0.7160    -0.3240 c          1 9WV       0.713000
     11 O           -2.4850    -1.2770    -1.4100 o          1 9WV      -0.725500
     12 H1          -0.6830     3.4620    -0.7090 hn         1 9WV       0.377000
     13 H2          -0.4650     2.6970     0.7010 hn         1 9WV       0.377000
     14 HB1         -2.4840     2.0290    -0.4430 h1         1 9WV       0.032700
     15 HB2         -1.4650     1.3910    -1.7540 h1         1 9WV       0.032700
     16 HA          -1.5230     0.4370     1.1660 h1         1 9WV       0.057700
     17 H            0.0690    -0.9420    -0.9660 hn         1 9WV       0.328500
     18 H8           2.6340    -1.7130     1.1180 hc         1 9WV       0.056700
     19 H9           2.0170    -1.7340    -0.5700 hc         1 9WV       0.056700
     20 H10          2.9440     0.5590    -0.9170 h1         1 9WV       0.039700
     21 H11          3.5920     0.5460     0.7450 h1         1 9WV       0.039700
     22 H12          5.2610    -0.0760    -0.8080 hn         1 9WV       0.380000
     23 H13          4.9450    -1.3170     0.1770 hn         1 9WV       0.380000
     24 OXT         -3.4410    -0.9360     0.4880 o          1 9WV      -0.725500
@<TRIPOS>BOND
     1     1     2 1   
     2     1    12 1   
     3     1    13 1   
     4     2     3 1   
     5     2    14 1   
     6     2    15 1   
     7     3     4 1   
     8     3    10 1   
     9     3    16 1   
    10     4     5 1   
    11     4    17 1   
    12     5     6 2   
    13     5     7 1   
    14     7     8 1   
    15     7    18 1   
    16     7    19 1   
    17     8     9 1   
    18     8    20 1   
    19     8    21 1   
    20     9    22 1   
    21     9    23 1   
    22    10    11 1   
    23    10    24 1   
@<TRIPOS>SUBSTRUCTURE
     1 9WV         1 TEMP              0 ****  ****    0 ROOT
