@<TRIPOS>MOLECULE
9WV
   24    23     1     0     0
SMALL
abcg2


@<TRIPOS>ATOM
      1 NDV         -0.8270     2.5510    -0.5690 n8         1 9WV      -1.001200
      2 CB          -1.8150     1.4870    -0.5980 c3         1 9WV       0.142800
      3 CA          -1.3530     0.2480     0.1780 c3         1 9WV      -0.039300
      4 N           -0.0640    -0.2250    -0.2600 ns         1 9WV      -0.449900
      5 CEG          1.1050     0.0710     0.3220 c          1 9WV       0.602100
      6 OEK          1.2200     0.8510     1.2610 o          1 9WV      -0.663100
      7 CEH          2.2960    -0.6620    -0.2680 c3         1 9WV      -0.166400
      8 CEI          3.6320    -0.2250     0.3070 c3         1 9WV       0.156800
      9 NEJ          4.7110    -0.9540    -0.3470 n8         1 9WV      -1.004200
     10 C           -2.4170    -0.8650     0.0180 c          1 9WV       0.713000
     11 O           -2.1160    -1.8420    -0.6950 o          1 9WV      -0.725500
     12 H1          -1.1990     3.3620    -1.0460 hn         1 9WV       0.377000
     13 H2          -0.6660     2.8380     0.3880 hn         1 9WV       0.377000
     14 HB1         -2.7930     1.7770    -0.1930 h1         1 9WV       0.032700
     15 HB2         -1.9800     1.2050    -1.6430 h1         1 9WV       0.032700
     16 HA          -1.2820     0.5140     1.2360 h1         1 9WV       0.057700
     17 H           -0.0960    -0.9560    -0.9550 hn         1 9WV       0.328500
     18 H8           2.1580    -1.7370    -0.1020 hc         1 9WV       0.056700
     19 H9           2.3020    -0.5280    -1.3530 hc         1 9WV       0.056700
     20 H10          3.7770     0.8410     0.1190 h1         1 9WV       0.039700
     21 H11          3.6190    -0.3480     1.3970 h1         1 9WV       0.039700
     22 H12          5.5980    -0.6370     0.0210 hn         1 9WV       0.380000
     23 H13          4.6510    -1.9340    -0.0980 hn         1 9WV       0.380000
     24 OXT         -3.5000    -0.6610     0.5960 o          1 9WV      -0.725500
@<TRIPOS>BOND
     1     1     2 1   
     2     1    12 1   
     3     1    13 1   
     4     2     3 1   
     5     2    14 1   
     6     2    15 1   
     7     3     4 1   
     8     3    10 1   
     9     3    16 1   
    10     4     5 1   
    11     4    17 1   
    12     5     6 2   
    13     5     7 1   
    14     7     8 1   
    15     7    18 1   
    16     7    19 1   
    17     8     9 1   
    18     8    20 1   
    19     8    21 1   
    20     9    22 1   
    21     9    23 1   
    22    10    11 1   
    23    10    24 1   
@<TRIPOS>SUBSTRUCTURE
     1 9WV         1 TEMP              0 ****  ****    0 ROOT
