@<TRIPOS>MOLECULE
9WW
   79    85     1     0     0
SMALL
abcg2


@<TRIPOS>ATOM
      1 C10        -32.8490     3.2810     9.4050 ca         1 9WW      -0.235900
      2 C13        -31.2470     4.7270     8.3420 ca         1 9WW      -0.147000
      3 C15        -30.7780     2.3460     8.4810 ca         1 9WW      -0.006400
      4 C17        -29.9400     0.5140     7.1160 c          1 9WW       0.573600
      5 C20        -28.0420    -0.7570     8.0570 ca         1 9WW       0.181400
      6 C21        -27.0930    -1.7840     7.9460 ca         1 9WW      -0.104000
      7 C22        -27.0580    -2.5730     6.8130 ca         1 9WW      -0.070000
      8 C24        -28.9070    -1.3570     5.8610 ca         1 9WW      -0.039000
      9 C26        -28.9270     0.9640     9.2940 cc         1 9WW       0.493900
     10 C28        -27.7000     2.6920    10.6690 c3         1 9WW      -0.036100
     11 C04        -33.9570     2.7090    10.0990 cc         1 9WW       0.614800
     12 C07        -36.6890     1.6850    11.9840 c3         1 9WW      -0.362100
     13 C11        -32.4410     4.5600     9.0040 ca         1 9WW       0.216000
     14 C14        -30.4240     3.6160     8.0890 ca         1 9WW      -0.043000
     15 C19        -28.9520    -0.5480     7.0030 ca         1 9WW      -0.200600
     16 C23        -27.9660    -2.3620     5.7650 ca         1 9WW      -0.128000
     17 C27        -28.9520     1.7970    10.5600 c3         1 9WW       0.070400
     18 C29        -27.8680     3.6770    11.7930 ca         1 9WW      -0.036300
     19 C30        -28.6260     4.8320    11.5860 ca         1 9WW      -0.159500
     20 C31        -28.8470     5.6850    12.6490 ca         1 9WW       0.202000
     21 C33        -28.3470     5.4570    13.9200 ca         1 9WW      -0.174000
     22 C34        -27.5960     4.3080    14.0830 ca         1 9WW       0.202000
     23 C36        -27.3460     3.4130    13.0580 ca         1 9WW      -0.159500
     24 C40        -30.1490     0.0440    13.7060 c3         1 9WW      -0.001400
     25 C43        -33.1510     0.9030    15.4280 cc         1 9WW      -0.075300
     26 C44        -34.6230     0.7070    15.5280 c3         1 9WW       0.243600
     27 C47        -32.3050     1.7620    16.0890 cd         1 9WW      -0.096000
     28 C48        -30.9740     1.4310    15.6110 cd         1 9WW      -0.088000
     29 C49        -30.0470     2.3100    16.1350 cc         1 9WW      -0.213000
     30 C50        -30.8130     3.1920    16.9780 cc         1 9WW      -0.086000
     31 C51        -32.1690     2.8850    16.9620 cd         1 9WW      -0.148000
     32 C52        -32.0140     2.1670     9.1230 ca         1 9WW       0.017800
     33 F32        -29.5860     6.8010    12.4430 f          1 9WW      -0.174500
     34 F35        -27.0840     4.0510    15.3100 f          1 9WW      -0.174500
     35 F45        -35.1860     1.7720    16.1720 f          1 9WW      -0.113000
     36 F46        -34.9070    -0.4090    16.2970 f          1 9WW      -0.113000
     37 N02        -32.6330     1.0730     9.6350 na         1 9WW       0.089600
     38 N03        -33.8190     1.4050    10.2130 nd         1 9WW      -0.558100
     39 N05        -35.0750     3.3640    10.6190 nu         1 9WW      -0.834300
     40 N16        -29.8580     1.2550     8.3090 n          1 9WW      -0.262500
     41 N25        -28.0590     0.0210     9.1980 nd         1 9WW      -0.635100
     42 N37        -29.1130     0.9360    11.7130 ns         1 9WW      -0.513900
     43 N41        -31.0780     0.3670    14.7550 na         1 9WW      -0.052000
     44 N42        -32.4320     0.1350    14.5570 na         1 9WW      -0.193000
     45 O08        -36.4510     4.2630    12.4560 o          1 9WW      -0.530000
     46 O09        -34.5580     2.7570    13.0410 o          1 9WW      -0.530000
     47 O39        -30.9900     1.9560    12.4870 o          1 9WW      -0.542100
     48 S06        -35.6460     3.1020    12.1590 s6         1 9WW       1.240100
     49 CL12       -33.4380     5.9470     9.3540 cl         1 9WW      -0.183000
     50 H1         -30.9280     5.7130     8.0350 ha         1 9WW       0.141000
     51 H2         -26.3980    -1.9390     8.7600 ha         1 9WW       0.133000
     52 H3         -26.3230    -3.3640     6.7330 ha         1 9WW       0.122000
     53 H4         -29.6160    -1.1790     5.0640 ha         1 9WW       0.139000
     54 H5         -26.8240     2.0620    10.8220 hc         1 9WW       0.066200
     55 H6         -27.5760     3.2190     9.7220 hc         1 9WW       0.066200
     56 H7         -33.0310    -0.9000    10.0410 h1         1 9WW       0.058367
     57 H8         -32.0330    -0.6500     8.5990 h1         1 9WW       0.058367
     58 H9         -31.3220    -0.4680    10.2230 h1         1 9WW       0.058367
     59 H10        -37.0850     1.4620    12.9740 h1         1 9WW       0.106700
     60 H11        -37.4870     1.9310    11.2870 h1         1 9WW       0.106700
     61 H12        -36.0810     0.8630    11.6140 h1         1 9WW       0.106700
     62 H13        -29.4690     3.7630     7.6000 ha         1 9WW       0.130000
     63 H14        -27.9260    -2.9870     4.8830 ha         1 9WW       0.125000
     64 H15        -29.8220     2.4420    10.5600 h1         1 9WW       0.109700
     65 H16        -29.0510     5.0570    10.6170 ha         1 9WW       0.131000
     66 H17        -28.5310     6.1400    14.7370 ha         1 9WW       0.155000
     67 H18        -26.7610     2.5240    13.2480 ha         1 9WW       0.131000
     68 H19        -30.4040    -0.9300    13.2850 h1         1 9WW       0.077700
     69 H20        -29.1570    -0.0380    14.1500 h1         1 9WW       0.077700
     70 H21        -35.1180     0.5750    14.5670 h2         1 9WW       0.072700
     71 H22        -28.9850     2.3500    15.9560 ha         1 9WW       0.125000
     72 H23        -30.3740     3.9970    17.5540 ha         1 9WW       0.113000
     73 H24        -32.9540     3.3870    17.5050 ha         1 9WW       0.133000
     74 H25        -35.2370     4.3120    10.3070 hn         1 9WW       0.522000
     75 H26        -28.4320     0.2040    11.8600 hn         1 9WW       0.327500
     76 H27        -32.6970    -0.8030    14.2780 hn         1 9WW       0.344000
     77 C01        -32.2170    -0.3190     9.6200 c3         1 9WW       0.088900
     78 O18        -30.7980     0.7790     6.2860 o          1 9WW      -0.509000
     79 C38        -30.1340     1.0870    12.5820 c          1 9WW       0.555100
@<TRIPOS>BOND
     1     1    11 1   
     2     1    13 ar  
     3     1    32 ar  
     4     2    13 ar  
     5     2    14 ar  
     6     2    50 1   
     7     3    14 ar  
     8     3    32 ar  
     9     3    40 1   
    10     4    15 1   
    11     4    40 1   
    12     4    78 2   
    13     5     6 ar  
    14     5    15 ar  
    15     5    41 1   
    16     6     7 ar  
    17     6    51 1   
    18     7    16 ar  
    19     7    52 1   
    20     8    15 ar  
    21     8    16 ar  
    22     8    53 1   
    23     9    17 1   
    24     9    40 1   
    25     9    41 2   
    26    10    17 1   
    27    10    18 1   
    28    10    54 1   
    29    10    55 1   
    30    11    38 2   
    31    11    39 1   
    32    12    48 1   
    33    12    59 1   
    34    12    60 1   
    35    12    61 1   
    36    13    49 1   
    37    14    62 1   
    38    16    63 1   
    39    17    42 1   
    40    17    64 1   
    41    18    19 ar  
    42    18    23 ar  
    43    19    20 ar  
    44    19    65 1   
    45    20    21 ar  
    46    20    33 1   
    47    21    22 ar  
    48    21    66 1   
    49    22    23 ar  
    50    22    34 1   
    51    23    67 1   
    52    24    43 1   
    53    24    68 1   
    54    24    69 1   
    55    24    79 1   
    56    25    26 1   
    57    25    27 2   
    58    25    44 1   
    59    26    35 1   
    60    26    36 1   
    61    26    70 1   
    62    27    28 1   
    63    27    31 1   
    64    28    29 2   
    65    28    43 1   
    66    29    30 1   
    67    29    71 1   
    68    30    31 2   
    69    30    72 1   
    70    31    73 1   
    71    32    37 1   
    72    37    38 1   
    73    37    77 1   
    74    39    48 1   
    75    39    74 1   
    76    42    75 1   
    77    42    79 1   
    78    43    44 1   
    79    44    76 1   
    80    45    48 2   
    81    46    48 2   
    82    47    79 2   
    83    56    77 1   
    84    57    77 1   
    85    58    77 1   
@<TRIPOS>SUBSTRUCTURE
     1 9WW         1 TEMP              0 ****  ****    0 ROOT
