@<TRIPOS>MOLECULE
9WW
   79    85     1     0     0
SMALL
No Charge or Current Charge


@<TRIPOS>ATOM
      1 C10        -33.4010     2.3090     9.2210 ca         1 9WW      -0.235900
      2 C13        -32.3180     4.2600     8.3250 ca         1 9WW      -0.147000
      3 C15        -31.0850     2.1430     8.5180 ca         1 9WW      -0.006400
      4 C17        -29.8050     0.7430     6.9760 c          1 9WW       0.573600
      5 C20        -27.6500    -0.1520     7.8000 ca         1 9WW       0.181400
      6 C21        -26.4980    -0.9380     7.6170 ca         1 9WW      -0.104000
      7 C22        -26.2850    -1.6400     6.4190 ca         1 9WW      -0.070000
      8 C24        -28.3850    -0.7790     5.5590 ca         1 9WW      -0.039000
      9 C26        -28.8810     1.2690     9.1670 cc         1 9WW       0.493900
     10 C28        -27.7050     2.4630    11.1690 c3         1 9WW      -0.036100
     11 C04        -34.3450     1.4020     9.8120 cc         1 9WW       0.614800
     12 C07        -36.6080    -0.1240    11.8830 c3         1 9WW      -0.362100
     13 C11        -33.4580     3.6730     8.9050 ca         1 9WW       0.216000
     14 C14        -31.1470     3.4960     8.1130 ca         1 9WW      -0.043000
     15 C19        -28.5920    -0.0760     6.7680 ca         1 9WW      -0.200600
     16 C23        -27.2310    -1.5590     5.3870 ca         1 9WW      -0.128000
     17 C27        -29.0400     2.0080    10.5090 c3         1 9WW       0.070400
     18 C29        -27.8880     3.1780    12.5090 ca         1 9WW      -0.036300
     19 C30        -28.7170     4.3130    12.6200 ca         1 9WW      -0.159500
     20 C31        -28.8980     4.9400    13.8630 ca         1 9WW       0.202000
     21 C33        -28.2370     4.4650    15.0030 ca         1 9WW      -0.174000
     22 C34        -27.3970     3.3500    14.8940 ca         1 9WW       0.202000
     23 C36        -27.2250     2.7050    13.6590 ca         1 9WW      -0.159500
     24 C40        -31.6540     0.7830    13.1030 c3         1 9WW      -0.001400
     25 C43        -32.7590     3.3070    15.6270 cc         1 9WW      -0.075300
     26 C44        -33.5780     4.5030    16.0400 c3         1 9WW       0.243600
     27 C47        -31.6250     2.7620    16.1580 cd         1 9WW      -0.096000
     28 C48        -31.2370     1.7000    15.4390 cd         1 9WW      -0.088000
     29 C49        -30.0540     1.2030    15.8890 cc         1 9WW      -0.213000
     30 C50        -29.7390     2.0370    17.0360 cc         1 9WW      -0.086000
     31 C51        -30.7140     3.0230    17.2120 cd         1 9WW      -0.148000
     32 C52        -32.2760     1.5630     9.0080 ca         1 9WW       0.017800
     33 F32        -29.7070     6.0180    13.9590 f          1 9WW      -0.174500
     34 F35        -26.7430     2.8940    15.9840 f          1 9WW      -0.174500
     35 F45        -32.8330     5.6320    16.0160 f          1 9WW      -0.113000
     36 F46        -34.0410     4.3610    17.3030 f          1 9WW      -0.113000
     37 N02        -32.5870     0.2780     9.4340 na         1 9WW       0.089600
     38 N03        -33.8810     0.1630     9.9320 nd         1 9WW      -0.558100
     39 N05        -35.6300     1.6860    10.0930 nu         1 9WW      -0.834300
     40 N16        -29.9120     1.3700     8.2170 n          1 9WW      -0.262500
     41 N25        -27.7810     0.5190     9.0190 nd         1 9WW      -0.635100
     42 N37        -29.8560     1.2530    11.4880 ns         1 9WW      -0.513900
     43 N41        -32.0260     1.4330    14.3690 na         1 9WW      -0.052000
     44 N42        -33.0110     2.4500    14.5110 na         1 9WW      -0.193000
     45 O08        -37.3920     2.3930    11.6540 o          1 9WW      -0.530000
     46 O09        -35.0460     1.9310    12.4990 o          1 9WW      -0.530000
     47 O39        -31.4510     2.8420    11.8380 o          1 9WW      -0.542100
     48 S06        -36.1750     1.5830    11.6360 s6         1 9WW       1.240100
     49 Cl12       -34.8980     4.6450     9.1880 cl         1 9WW      -0.183000
     50 H1         -32.3400     5.3080     8.0400 ha         1 9WW       0.141000
     51 H2         -25.7600    -1.0030     8.4130 ha         1 9WW       0.133000
     52 H3         -25.3880    -2.2440     6.2920 ha         1 9WW       0.122000
     53 H4         -29.1160    -0.7230     4.7540 ha         1 9WW       0.139000
     54 H5         -27.0600     1.5880    11.3120 hc         1 9WW       0.066200
     55 H6         -27.1720     3.1220    10.4730 hc         1 9WW       0.066200
     56 H7         -32.2060    -1.7790     9.7230 h1         1 9WW       0.058367
     57 H8         -31.5210    -1.0870     8.2280 h1         1 9WW       0.058367
     58 H9         -30.7670    -0.7310     9.8150 h1         1 9WW       0.058367
     59 H10        -37.0240    -0.2130    12.8910 h1         1 9WW       0.106700
     60 H11        -37.3480    -0.3880    11.1210 h1         1 9WW       0.106700
     61 H12        -35.6950    -0.7170    11.7760 h1         1 9WW       0.106700
     62 H13        -30.2780     3.9630     7.6540 ha         1 9WW       0.130000
     63 H14        -27.0730    -2.1000     4.4560 ha         1 9WW       0.125000
     64 H15        -29.5630     2.9440    10.2850 h1         1 9WW       0.109700
     65 H16        -29.2360     4.7060    11.7510 ha         1 9WW       0.131000
     66 H17        -28.3760     4.9560    15.9610 ha         1 9WW       0.155000
     67 H18        -26.5730     1.8360    13.6030 ha         1 9WW       0.131000
     68 H19        -32.5500     0.3620    12.6320 h1         1 9WW       0.077700
     69 H20        -30.9640    -0.0400    13.3200 h1         1 9WW       0.077700
     70 H21        -34.4320     4.6350    15.3680 h2         1 9WW       0.072700
     71 H22        -29.4660     0.3800    15.4950 ha         1 9WW       0.125000
     72 H23        -28.8500     1.9160    17.6480 ha         1 9WW       0.113000
     73 H24        -30.7460     3.8130    17.9550 ha         1 9WW       0.133000
     74 H25        -35.8630     2.6360     9.8590 hn         1 9WW       0.522000
     75 H26        -29.5300     0.3370    11.7770 hn         1 9WW       0.327500
     76 H27        -33.8010     2.4290    13.8680 hn         1 9WW       0.344000
     77 C01        -31.7140    -0.8990     9.2910 c3         1 9WW       0.088900
     78 O18        -30.6720     0.8470     6.1170 o          1 9WW      -0.509000
     79 C38        -30.9960     1.7380    12.1010 c          1 9WW       0.555100
@<TRIPOS>BOND
     1     1    11 1   
     2     1    13 ar  
     3     1    32 ar  
     4     2    13 ar  
     5     2    14 ar  
     6     2    50 1   
     7     3    14 ar  
     8     3    32 ar  
     9     3    40 1   
    10     4    15 1   
    11     4    40 1   
    12     4    78 2   
    13     5     6 ar  
    14     5    15 ar  
    15     5    41 1   
    16     6     7 ar  
    17     6    51 1   
    18     7    16 ar  
    19     7    52 1   
    20     8    15 ar  
    21     8    16 ar  
    22     8    53 1   
    23     9    17 1   
    24     9    40 1   
    25     9    41 2   
    26    10    17 1   
    27    10    18 1   
    28    10    54 1   
    29    10    55 1   
    30    11    38 2   
    31    11    39 1   
    32    12    48 1   
    33    12    59 1   
    34    12    60 1   
    35    12    61 1   
    36    13    49 1   
    37    14    62 1   
    38    16    63 1   
    39    17    42 1   
    40    17    64 1   
    41    18    19 ar  
    42    18    23 ar  
    43    19    20 ar  
    44    19    65 1   
    45    20    21 ar  
    46    20    33 1   
    47    21    22 ar  
    48    21    66 1   
    49    22    23 ar  
    50    22    34 1   
    51    23    67 1   
    52    24    43 1   
    53    24    68 1   
    54    24    69 1   
    55    24    79 1   
    56    25    26 1   
    57    25    27 2   
    58    25    44 1   
    59    26    35 1   
    60    26    36 1   
    61    26    70 1   
    62    27    28 1   
    63    27    31 1   
    64    28    29 2   
    65    28    43 1   
    66    29    30 1   
    67    29    71 1   
    68    30    31 2   
    69    30    72 1   
    70    31    73 1   
    71    32    37 1   
    72    37    38 1   
    73    37    77 1   
    74    39    48 1   
    75    39    74 1   
    76    42    75 1   
    77    42    79 1   
    78    43    44 1   
    79    44    76 1   
    80    45    48 2   
    81    46    48 2   
    82    47    79 2   
    83    56    77 1   
    84    57    77 1   
    85    58    77 1   
@<TRIPOS>SUBSTRUCTURE
     1 9WW         1 TEMP              0 ****  ****    0 ROOT
