@<TRIPOS>MOLECULE
9WX
   60    63     1     0     0
SMALL
No Charge or Current Charge


@<TRIPOS>ATOM
      1 CBG         -3.2720     3.4240    -0.4480 c3         1 9WX      -0.097100
      2 CBF         -2.0390     2.7890    -1.1080 c3         1 9WX       0.169600
      3 OBE         -0.8850     3.2240    -0.3680 os         1 9WX      -0.444100
      4 C            0.3530     2.8320    -0.8080 c          1 9WX       0.573100
      5 O            0.5450     2.1460    -1.8040 o          1 9WX      -0.458000
      6 CA           1.4660     3.3490     0.1120 c3         1 9WX      -0.006400
      7 N            2.6120     2.4250     0.2350 na         1 9WX      -0.149500
      8 CBA          2.6500     1.2810     1.0030 cc         1 9WX      -0.054000
      9 CAY          3.8190     2.5220    -0.4280 cc         1 9WX       0.403400
     10 NAX          4.6060     1.4980    -0.1290 nd         1 9WX      -0.580000
     11 CAW          3.8780     0.7090     0.7660 cd         1 9WX      -0.016100
     12 SAV          4.3900    -0.8900     1.4890 sy         1 9WX       1.178300
     13 OBH          5.8520    -0.9640     1.6500 o          1 9WX      -0.520000
     14 OBI          3.4720    -1.1830     2.6020 o          1 9WX      -0.520000
     15 NAU          3.9890    -2.0640     0.2620 na         1 9WX      -0.304600
     16 CAQ          2.7460    -2.1880    -0.3400 ca         1 9WX       0.357500
     17 NAR          1.6010    -1.4820    -0.1720 nb         1 9WX      -0.654000
     18 CAT          4.9160    -2.9890    -0.2960 cc         1 9WX      -0.102100
     19 CAS          4.1840    -3.6890    -1.2440 cd         1 9WX      -0.326800
     20 CAP          2.8390    -3.2020    -1.2900 ca         1 9WX       0.318800
     21 NAO          1.8620    -3.6000    -2.1330 nb         1 9WX      -0.591000
     22 CAN          0.7070    -2.8900    -1.9680 ca         1 9WX       0.271900
     23 CAM          0.5790    -1.8390    -1.0020 ca         1 9WX       0.332300
     24 CAL         -0.7020    -1.0300    -0.8680 c3         1 9WX      -0.121700
     25 CAK         -1.8300    -1.7900    -0.1380 c3         1 9WX      -0.029100
     26 CAD         -3.0690    -0.9220     0.0340 ca         1 9WX      -0.005300
     27 CAE         -3.9410    -0.7090    -1.0470 ca         1 9WX      -0.185500
     28 CAC         -3.3420    -0.3050     1.2660 ca         1 9WX      -0.185500
     29 CAB         -4.4730     0.5090     1.4250 ca         1 9WX       0.176600
     30 OAI         -4.6760     1.0890     2.6600 os         1 9WX      -0.343600
     31 CAJ         -5.7800     1.9720     2.9230 c3         1 9WX       0.149400
     32 CAA         -5.3470     0.7150     0.3370 ca         1 9WX      -0.289000
     33 CAF         -5.0740     0.1050    -0.9040 ca         1 9WX       0.176600
     34 OAG         -5.8800     0.2790    -2.0090 os         1 9WX      -0.343600
     35 CAH         -7.0520     1.1130    -1.9830 c3         1 9WX       0.149400
     36 H1          -4.1830     3.1180    -0.9730 hc         1 9WX       0.049367
     37 H2          -3.3540     3.1100     0.5990 hc         1 9WX       0.049367
     38 H3          -3.2060     4.5180    -0.4810 hc         1 9WX       0.049367
     39 H4          -2.1320     1.6950    -1.0840 h1         1 9WX       0.056200
     40 H5          -1.9800     3.1110    -2.1560 h1         1 9WX       0.056200
     41 H6           1.8010     4.3170    -0.2790 h1         1 9WX       0.097200
     42 H7           1.0340     3.5160     1.1060 h1         1 9WX       0.097200
     43 H8           1.8200     0.9460     1.6160 h4         1 9WX       0.188000
     44 H9           4.0490     3.3370    -1.1040 h5         1 9WX       0.064100
     45 H10          5.9590    -3.0650     0.0150 h4         1 9WX       0.246000
     46 H11          4.5740    -4.4830    -1.8740 ha         1 9WX       0.221000
     47 H12         -0.1230    -3.1510    -2.6230 h4         1 9WX       0.028100
     48 H13         -0.5030    -0.0980    -0.3250 hc         1 9WX       0.062200
     49 H14         -1.0520    -0.7330    -1.8640 hc         1 9WX       0.062200
     50 H15         -2.0840    -2.6970    -0.7010 hc         1 9WX       0.064200
     51 H16         -1.4620    -2.1280     0.8390 hc         1 9WX       0.064200
     52 H17         -3.7380    -1.1730    -2.0090 ha         1 9WX       0.125500
     53 H18         -2.6720    -0.4510     2.1090 ha         1 9WX       0.125500
     54 H19         -5.7430     2.8500     2.2640 h1         1 9WX       0.040367
     55 H20         -6.7370     1.4570     2.7700 h1         1 9WX       0.040367
     56 H21         -5.7460     2.3240     3.9610 h1         1 9WX       0.040367
     57 H22         -6.2200     1.3450     0.4540 ha         1 9WX       0.120000
     58 H23         -7.5400     1.1140    -2.9660 h1         1 9WX       0.040367
     59 H24         -7.7760     0.7450    -1.2450 h1         1 9WX       0.040367
     60 H25         -6.7880     2.1490    -1.7340 h1         1 9WX       0.040367
@<TRIPOS>BOND
     1     1     2 1   
     2     1    36 1   
     3     1    37 1   
     4     1    38 1   
     5     2     3 1   
     6     2    39 1   
     7     2    40 1   
     8     3     4 1   
     9     4     5 2   
    10     4     6 1   
    11     6     7 1   
    12     6    41 1   
    13     6    42 1   
    14     7     8 1   
    15     7     9 1   
    16     8    11 2   
    17     8    43 1   
    18     9    10 2   
    19     9    44 1   
    20    10    11 1   
    21    11    12 1   
    22    12    13 2   
    23    12    14 2   
    24    12    15 1   
    25    15    16 1   
    26    15    18 1   
    27    16    17 ar  
    28    16    20 ar  
    29    17    23 ar  
    30    18    19 2   
    31    18    45 1   
    32    19    20 1   
    33    19    46 1   
    34    20    21 ar  
    35    21    22 ar  
    36    22    23 ar  
    37    22    47 1   
    38    23    24 1   
    39    24    25 1   
    40    24    48 1   
    41    24    49 1   
    42    25    26 1   
    43    25    50 1   
    44    25    51 1   
    45    26    27 ar  
    46    26    28 ar  
    47    27    33 ar  
    48    27    52 1   
    49    28    29 ar  
    50    28    53 1   
    51    29    30 1   
    52    29    32 ar  
    53    30    31 1   
    54    31    54 1   
    55    31    55 1   
    56    31    56 1   
    57    32    33 ar  
    58    32    57 1   
    59    33    34 1   
    60    34    35 1   
    61    35    58 1   
    62    35    59 1   
    63    35    60 1   
@<TRIPOS>SUBSTRUCTURE
     1 9WX         1 TEMP              0 ****  ****    0 ROOT
