@<TRIPOS>MOLECULE
9WX
   60    63     1     0     0
SMALL
bcc


@<TRIPOS>ATOM
      1 CBG         -2.6220     4.7880    -0.8010 c3         1 9WX      -0.097100
      2 CBF         -1.6740     3.6360    -1.0220 c3         1 9WX       0.146400
      3 OBE         -0.7270     3.6290     0.0660 os         1 9WX      -0.420900
      4 C            0.2880     2.7950    -0.0020 c          1 9WX       0.622100
      5 O            0.5070     2.0250    -0.8970 o          1 9WX      -0.507000
      6 CA           1.1730     2.9390     1.2240 c3         1 9WX      -0.035700
      7 N            2.2090     1.9400     1.2200 na         1 9WX      -0.170900
      8 CBA          2.0610     0.6460     1.5820 cc         1 9WX      -0.086600
      9 CAY          3.4670     2.0900     0.7290 cc         1 9WX       0.403400
     10 NAX          4.1420     0.9780     0.7750 nd         1 9WX      -0.580000
     11 CAW          3.2730     0.0800     1.3090 cd         1 9WX       0.049200
     12 SAV          3.6800    -1.5860     1.5220 sy         1 9WX       1.319900
     13 OBH          5.0550    -1.7280     1.9470 o          1 9WX      -0.590800
     14 OBI          2.6020    -2.2250     2.2390 o          1 9WX      -0.590800
     15 NAU          3.6590    -2.1790    -0.0630 na         1 9WX      -0.304600
     16 CAQ          2.5620    -2.1830    -0.8960 ca         1 9WX       0.357500
     17 NAR          1.3610    -1.7320    -0.6300 nb         1 9WX      -0.654000
     18 CAT          4.7410    -2.7060    -0.7610 cc         1 9WX      -0.052100
     19 CAS          4.3560    -3.0620    -2.0110 cd         1 9WX      -0.276800
     20 CAP          2.9670    -2.7330    -2.1240 ca         1 9WX       0.318800
     21 NAO          2.0950    -2.8550    -3.1180 nb         1 9WX      -0.591000
     22 CAN          0.8760    -2.4090    -2.8600 ca         1 9WX       0.271900
     23 CAM          0.4970    -1.8320    -1.6340 ca         1 9WX       0.332300
     24 CAL         -0.8800    -1.2700    -1.4440 c3         1 9WX      -0.121700
     25 CAK         -1.4550    -1.5010    -0.0440 c3         1 9WX      -0.029100
     26 CAD         -2.7880    -0.8240     0.1060 ca         1 9WX      -0.005300
     27 CAE         -3.9360    -1.4320    -0.3870 ca         1 9WX      -0.203500
     28 CAC         -2.8710     0.4320     0.6930 ca         1 9WX      -0.203500
     29 CAB         -4.1010     1.0800     0.7880 ca         1 9WX       0.176600
     30 OAI         -4.0880     2.2910     1.3760 os         1 9WX      -0.320400
     31 CAJ         -5.2970     3.0140     1.4840 c3         1 9WX       0.126200
     32 CAA         -5.2570     0.4780     0.2940 ca         1 9WX      -0.307000
     33 CAF         -5.1640    -0.7830    -0.2940 ca         1 9WX       0.176600
     34 OAG         -6.2230    -1.4450    -0.7970 os         1 9WX      -0.320400
     35 CAH         -7.5020    -0.8460    -0.7300 c3         1 9WX       0.126200
     36 H1          -3.3670     4.7900    -1.5960 hc         1 9WX       0.049367
     37 H2          -3.1480     4.6970     0.1480 hc         1 9WX       0.049367
     38 H3          -2.1030     5.7460    -0.8230 hc         1 9WX       0.049367
     39 H4          -2.2050     2.6830    -1.0340 h1         1 9WX       0.056200
     40 H5          -1.1420     3.7410    -1.9680 h1         1 9WX       0.056200
     41 H6           1.6290     3.9300     1.2330 h1         1 9WX       0.097200
     42 H7           0.5810     2.8550     2.1360 h1         1 9WX       0.097200
     43 H8           1.1490     0.2430     1.9870 h4         1 9WX       0.206000
     44 H9           3.8310     3.0390     0.3660 h5         1 9WX       0.064100
     45 H10          5.7080    -2.7840    -0.2930 h4         1 9WX       0.196000
     46 H11          4.9900    -3.5010    -2.7640 ha         1 9WX       0.171000
     47 H12          0.1440    -2.4990    -3.6540 h4         1 9WX       0.028100
     48 H13         -0.8370    -0.1940    -1.6350 hc         1 9WX       0.062200
     49 H14         -1.5500    -1.6890    -2.1970 hc         1 9WX       0.062200
     50 H15         -1.5550    -2.5740     0.1360 hc         1 9WX       0.064200
     51 H16         -0.7560    -1.1170     0.6990 hc         1 9WX       0.064200
     52 H17         -3.8840    -2.4130    -0.8470 ha         1 9WX       0.143500
     53 H18         -1.9850     0.9130     1.0900 ha         1 9WX       0.143500
     54 H19         -5.7320     3.2320     0.5050 h1         1 9WX       0.040367
     55 H20         -6.0380     2.4900     2.0920 h1         1 9WX       0.040367
     56 H21         -5.0500     3.9540     1.9710 h1         1 9WX       0.040367
     57 H22         -6.2110     0.9790     0.3730 ha         1 9WX       0.138000
     58 H23         -8.1960    -1.5500    -1.1820 h1         1 9WX       0.040367
     59 H24         -7.8150    -0.6590     0.3000 h1         1 9WX       0.040367
     60 H25         -7.5430     0.0940    -1.2880 h1         1 9WX       0.040367
@<TRIPOS>BOND
     1     1     2 1   
     2     1    36 1   
     3     1    37 1   
     4     1    38 1   
     5     2     3 1   
     6     2    39 1   
     7     2    40 1   
     8     3     4 1   
     9     4     5 2   
    10     4     6 1   
    11     6     7 1   
    12     6    41 1   
    13     6    42 1   
    14     7     8 1   
    15     7     9 1   
    16     8    11 2   
    17     8    43 1   
    18     9    10 2   
    19     9    44 1   
    20    10    11 1   
    21    11    12 1   
    22    12    13 2   
    23    12    14 2   
    24    12    15 1   
    25    15    16 1   
    26    15    18 1   
    27    16    17 ar  
    28    16    20 ar  
    29    17    23 ar  
    30    18    19 2   
    31    18    45 1   
    32    19    20 1   
    33    19    46 1   
    34    20    21 ar  
    35    21    22 ar  
    36    22    23 ar  
    37    22    47 1   
    38    23    24 1   
    39    24    25 1   
    40    24    48 1   
    41    24    49 1   
    42    25    26 1   
    43    25    50 1   
    44    25    51 1   
    45    26    27 ar  
    46    26    28 ar  
    47    27    33 ar  
    48    27    52 1   
    49    28    29 ar  
    50    28    53 1   
    51    29    30 1   
    52    29    32 ar  
    53    30    31 1   
    54    31    54 1   
    55    31    55 1   
    56    31    56 1   
    57    32    33 ar  
    58    32    57 1   
    59    33    34 1   
    60    34    35 1   
    61    35    58 1   
    62    35    59 1   
    63    35    60 1   
@<TRIPOS>SUBSTRUCTURE
     1 9WX         1 TEMP              0 ****  ****    0 ROOT
