@<TRIPOS>MOLECULE
9WZ
   42    43     1     0     0
SMALL
bcc


@<TRIPOS>ATOM
      1 C4          -3.4310    -1.5120     0.1440 c5         1 9WZ       0.078100
      2 C5          -3.4650     0.0210     0.2470 c5         1 9WZ       0.109100
      3 C6          -3.2980     0.5120     1.6650 c3         1 9WZ       0.133400
      4 C3          -2.6590    -1.7160    -1.1530 c5         1 9WZ       0.128100
      5 O6          -3.4630     1.9090     1.6980 oh         1 9WZ      -0.581800
      6 O4          -4.6950    -2.1170     0.0640 oh         1 9WZ      -0.592800
      7 O3          -2.0100    -2.9410    -1.3030 oh         1 9WZ      -0.569800
      8 O5          -2.4230     0.5060    -0.6040 os         1 9WZ      -0.365600
      9 C2          -1.6680    -0.5520    -1.0970 c5         1 9WZ       0.320600
     10 O2          -0.6850    -0.9430    -0.1490 os         1 9WZ      -0.349900
     11 C1          -1.1190    -0.1790    -2.4720 c3         1 9WZ       0.136400
     12 O1          -0.4200     1.0380    -2.5080 oh         1 9WZ      -0.569800
     13 CAF          2.3420     1.0150     0.4440 ca         1 9WZ      -0.222000
     14 CAJ          1.0050     0.6360     0.4780 ca         1 9WZ       0.133100
     15 OAC          0.0730     1.3150     1.1670 oh         1 9WZ      -0.464100
     16 CAI          0.6020    -0.5080    -0.2230 ca         1 9WZ       0.075100
     17 CAD          1.5470    -1.2400    -0.9260 ca         1 9WZ      -0.122000
     18 CAE          2.8790    -0.8480    -0.9590 ca         1 9WZ      -0.158000
     19 CAK          3.2900     0.2880    -0.2720 ca         1 9WZ      -0.045300
     20 CAH          4.7360     0.6960    -0.2430 c3         1 9WZ      -0.038100
     21 CAG          5.4240     0.1650     1.0070 c3         1 9WZ       0.141400
     22 OAA          6.7740     0.5690     0.9850 oh         1 9WZ      -0.600800
     23 H1          -2.8510    -1.9350     0.9750 h1         1 9WZ       0.067700
     24 H2          -4.4190     0.3820    -0.1560 h1         1 9WZ       0.082700
     25 H3          -4.0520     0.0030     2.2840 h1         1 9WZ       0.026200
     26 H4          -2.3140     0.2070     2.0370 h1         1 9WZ       0.026200
     27 H5          -3.3510    -1.5220    -1.9860 h1         1 9WZ       0.058700
     28 H6          -3.1720     2.2240     2.5580 ho         1 9WZ       0.401000
     29 H7          -5.0550    -2.2040     0.9510 ho         1 9WZ       0.413000
     30 H8          -2.6680    -3.6030    -1.5350 ho         1 9WZ       0.416000
     31 H9          -0.5290    -1.0140    -2.8640 h1         1 9WZ       0.057700
     32 H10         -1.9810    -0.0720    -3.1340 h1         1 9WZ       0.057700
     33 H11          0.5020     0.8780    -2.2880 ho         1 9WZ       0.406000
     34 H13          0.4770     2.0700     1.6080 ho         1 9WZ       0.421000
     35 H14          1.2300    -2.1390    -1.4410 ha         1 9WZ       0.150000
     36 H15          3.5960    -1.4340    -1.5210 ha         1 9WZ       0.138000
     37 H16          5.2490     0.3090    -1.1270 hc         1 9WZ       0.062200
     38 H17          4.8230     1.7850    -0.2670 hc         1 9WZ       0.062200
     39 H18          4.9030     0.5470     1.8950 h1         1 9WZ       0.021200
     40 H19          5.3280    -0.9290     1.0300 h1         1 9WZ       0.021200
     41 H20          7.2120     0.1920     1.7530 ho         1 9WZ       0.406000
     42 H12          2.6500     1.9060     0.9830 ha         1 9WZ       0.133000
@<TRIPOS>BOND
     1     1     2 1   
     2     1     4 1   
     3     1     6 1   
     4     1    23 1   
     5     2     3 1   
     6     2     8 1   
     7     2    24 1   
     8     3     5 1   
     9     3    25 1   
    10     3    26 1   
    11     4     7 1   
    12     4     9 1   
    13     4    27 1   
    14     5    28 1   
    15     6    29 1   
    16     7    30 1   
    17     8     9 1   
    18     9    10 1   
    19     9    11 1   
    20    10    16 1   
    21    11    12 1   
    22    11    31 1   
    23    11    32 1   
    24    12    33 1   
    25    13    14 ar  
    26    13    19 ar  
    27    13    42 1   
    28    14    15 1   
    29    14    16 ar  
    30    15    34 1   
    31    16    17 ar  
    32    17    18 ar  
    33    17    35 1   
    34    18    19 ar  
    35    18    36 1   
    36    19    20 1   
    37    20    21 1   
    38    20    37 1   
    39    20    38 1   
    40    21    22 1   
    41    21    39 1   
    42    21    40 1   
    43    22    41 1   
@<TRIPOS>SUBSTRUCTURE
     1 9WZ         1 TEMP              0 ****  ****    0 ROOT
