@<TRIPOS>MOLECULE
9WZ
   42    43     1     0     0
SMALL
No Charge or Current Charge


@<TRIPOS>ATOM
      1 C4          -3.4320    -1.5320     0.0570 c5         1 9WZ       0.101300
      2 C5          -3.4190     0.0300     0.2130 c5         1 9WZ       0.132300
      3 C6          -3.3040     0.5130     1.6860 c3         1 9WZ       0.156600
      4 C3          -2.7380    -1.6560    -1.3270 c5         1 9WZ       0.151300
      5 O6          -3.5670     1.9240     1.7980 oh         1 9WZ      -0.704000
      6 O4          -4.7480    -2.1180     0.0500 oh         1 9WZ      -0.715000
      7 O3          -2.3520    -3.0040    -1.6600 oh         1 9WZ      -0.692000
      8 O5          -2.2920     0.5100    -0.5880 os         1 9WZ      -0.412000
      9 C2          -1.5730    -0.6210    -1.1350 c5         1 9WZ       0.367000
     10 O2          -0.6780    -1.1680    -0.0930 os         1 9WZ      -0.373100
     11 C1          -0.8980    -0.2240    -2.5030 c3         1 9WZ       0.159600
     12 O1          -0.1760     1.0290    -2.4360 oh         1 9WZ      -0.692000
     13 CAF          2.3040     1.0010     0.4410 ca         1 9WZ      -0.204000
     14 CAJ          0.9710     0.5570     0.4920 ca         1 9WZ       0.133100
     15 OAC          0.0560     1.3060     1.1760 oh         1 9WZ      -0.503100
     16 CAI          0.6060    -0.6550    -0.1510 ca         1 9WZ       0.075100
     17 CAD          1.5980    -1.4250    -0.7860 ca         1 9WZ      -0.104000
     18 CAE          2.9280    -0.9730    -0.8330 ca         1 9WZ      -0.140000
     19 CAK          3.2860     0.2450    -0.2280 ca         1 9WZ      -0.045300
     20 CAH          4.7290     0.7290    -0.2750 c3         1 9WZ      -0.038100
     21 CAG          5.5610     0.1880     0.9050 c3         1 9WZ       0.164600
     22 OAA          6.9080     0.6690     0.8160 oh         1 9WZ      -0.663000
     23 H1          -2.8180    -2.0010     0.8400 h1         1 9WZ       0.067700
     24 H2          -4.3370     0.4540    -0.2150 h1         1 9WZ       0.082700
     25 H3          -4.0280    -0.0460     2.2930 h1         1 9WZ       0.026200
     26 H4          -2.3030     0.2710     2.0660 h1         1 9WZ       0.026200
     27 H5          -3.4190    -1.2810    -2.1050 h1         1 9WZ       0.058700
     28 H6          -3.3520     2.1840     2.7240 ho         1 9WZ       0.500000
     29 H7          -5.0810    -2.1220     0.9790 ho         1 9WZ       0.512000
     30 H8          -3.1290    -3.5670    -1.4310 ho         1 9WZ       0.515000
     31 H9          -0.2380    -1.0390    -2.8270 h1         1 9WZ       0.057700
     32 H10         -1.6920    -0.1470    -3.2580 h1         1 9WZ       0.057700
     33 H11         -0.5800     1.5260    -1.6860 ho         1 9WZ       0.505000
     34 H13          0.5170     2.0760     1.5680 ho         1 9WZ       0.460000
     35 H14          1.3320    -2.3730    -1.2460 ha         1 9WZ       0.132000
     36 H15          3.6810    -1.5740    -1.3380 ha         1 9WZ       0.120000
     37 H16          5.2000     0.4200    -1.2160 hc         1 9WZ       0.062200
     38 H17          4.7610     1.8250    -0.2620 hc         1 9WZ       0.062200
     39 H18          5.1020     0.5140     1.8480 h1         1 9WZ       0.021200
     40 H19          5.5460    -0.9090     0.8830 h1         1 9WZ       0.021200
     41 H20          7.3950     0.2980     1.5860 ho         1 9WZ       0.445000
     42 H12          2.5860     1.9330     0.9260 ha         1 9WZ       0.115000
@<TRIPOS>BOND
     1     1     2 1   
     2     1     4 1   
     3     1     6 1   
     4     1    23 1   
     5     2     3 1   
     6     2     8 1   
     7     2    24 1   
     8     3     5 1   
     9     3    25 1   
    10     3    26 1   
    11     4     7 1   
    12     4     9 1   
    13     4    27 1   
    14     5    28 1   
    15     6    29 1   
    16     7    30 1   
    17     8     9 1   
    18     9    10 1   
    19     9    11 1   
    20    10    16 1   
    21    11    12 1   
    22    11    31 1   
    23    11    32 1   
    24    12    33 1   
    25    13    14 ar  
    26    13    19 ar  
    27    13    42 1   
    28    14    15 1   
    29    14    16 ar  
    30    15    34 1   
    31    16    17 ar  
    32    17    18 ar  
    33    17    35 1   
    34    18    19 ar  
    35    18    36 1   
    36    19    20 1   
    37    20    21 1   
    38    20    37 1   
    39    20    38 1   
    40    21    22 1   
    41    21    39 1   
    42    21    40 1   
    43    22    41 1   
@<TRIPOS>SUBSTRUCTURE
     1 9WZ         1 TEMP              0 ****  ****    0 ROOT
