@<TRIPOS>MOLECULE
9X0
   40    42     1     0     0
SMALL
abcg2


@<TRIPOS>ATOM
      1 C10         -2.4010     0.7970     0.1020 ca         1 9X0       0.154100
      2 C16          3.5170    -0.1430     0.3150 c6         1 9X0      -0.079700
      3 C15          2.5880    -1.3340     0.1170 c3         1 9X0       0.103000
      4 C21          4.9420    -0.6320     0.5680 c6         1 9X0      -0.071400
      5 C20          5.9140     0.5270     0.7580 c6         1 9X0      -0.073400
      6 C19          5.8730     1.4910    -0.4230 c6         1 9X0      -0.075400
      7 C18          4.4540     1.9850    -0.6800 c6         1 9X0      -0.073400
      8 C17          3.4850     0.8230    -0.8710 c6         1 9X0      -0.071400
      9 N14          1.2010    -0.9100     0.0760 ns         1 9X0      -0.486900
     10 C01          0.2060    -1.7560    -0.1830 c          1 9X0       0.617300
     11 O13          0.3550    -2.9420    -0.4340 o          1 9X0      -0.580100
     12 C02         -1.1800    -1.1720    -0.1500 cc         1 9X0       0.054900
     13 O11         -1.2140     0.1480     0.0480 os         1 9X0      -0.228200
     14 C09         -2.3570     2.1730     0.3070 ca         1 9X0      -0.143000
     15 C08         -3.5460     2.8690     0.3640 ca         1 9X0      -0.054000
     16 C07         -4.7710     2.2100     0.2210 ca         1 9X0      -0.145000
     17 C06         -4.7980     0.8480     0.0170 ca         1 9X0      -0.022000
     18 C05         -3.6070     0.1160    -0.0470 ca         1 9X0      -0.228600
     19 C04         -3.6040    -1.3350    -0.2680 c          1 9X0       0.587900
     20 O12         -4.6280    -1.9870    -0.4090 o          1 9X0      -0.525100
     21 C03         -2.2780    -1.9270    -0.3070 cd         1 9X0      -0.319200
     22 H1           3.1850     0.3960     1.2130 hc         1 9X0       0.048700
     23 H2           2.8390    -1.8470    -0.8150 h1         1 9X0       0.056200
     24 H3           2.7270    -2.0540     0.9290 h1         1 9X0       0.056200
     25 H4           4.9610    -1.2840     1.4450 hc         1 9X0       0.042700
     26 H5           5.2690    -1.2440    -0.2810 hc         1 9X0       0.042700
     27 H6           5.6570     1.0670     1.6760 hc         1 9X0       0.040200
     28 H7           6.9260     0.1420     0.9000 hc         1 9X0       0.040200
     29 H8           6.5440     2.3350    -0.2460 hc         1 9X0       0.041200
     30 H9           6.2450     0.9800    -1.3180 hc         1 9X0       0.041200
     31 H10          4.1240     2.5990     0.1650 hc         1 9X0       0.040200
     32 H11          4.4310     2.6340    -1.5590 hc         1 9X0       0.040200
     33 H12          3.7520     0.2730    -1.7810 hc         1 9X0       0.042700
     34 H13          2.4750     1.2100    -1.0320 hc         1 9X0       0.042700
     35 H14          0.9930     0.0430     0.3290 hn         1 9X0       0.332500
     36 H15         -1.4060     2.6760     0.4180 ha         1 9X0       0.131000
     37 H16         -3.5260     3.9390     0.5210 ha         1 9X0       0.121000
     38 H17         -5.6930     2.7720     0.2700 ha         1 9X0       0.124000
     39 H18         -5.7390     0.3280    -0.0990 ha         1 9X0       0.140000
     40 H19         -2.1720    -2.9910    -0.4610 ha         1 9X0       0.238000
@<TRIPOS>BOND
     1     1    13 1   
     2     1    14 ar  
     3     1    18 ar  
     4     2     3 1   
     5     2     4 1   
     6     2     8 1   
     7     2    22 1   
     8     3     9 1   
     9     3    23 1   
    10     3    24 1   
    11     4     5 1   
    12     4    25 1   
    13     4    26 1   
    14     5     6 1   
    15     5    27 1   
    16     5    28 1   
    17     6     7 1   
    18     6    29 1   
    19     6    30 1   
    20     7     8 1   
    21     7    31 1   
    22     7    32 1   
    23     8    33 1   
    24     8    34 1   
    25     9    10 1   
    26     9    35 1   
    27    10    11 2   
    28    10    12 1   
    29    12    13 1   
    30    12    21 2   
    31    14    15 ar  
    32    14    36 1   
    33    15    16 ar  
    34    15    37 1   
    35    16    17 ar  
    36    16    38 1   
    37    17    18 ar  
    38    17    39 1   
    39    18    19 1   
    40    19    20 2   
    41    19    21 1   
    42    21    40 1   
@<TRIPOS>SUBSTRUCTURE
     1 9X0         1 TEMP              0 ****  ****    0 ROOT
