@<TRIPOS>MOLECULE
9X0
   40    42     1     0     0
SMALL
No Charge or Current Charge


@<TRIPOS>ATOM
      1 C10         -2.6300     0.7780     0.5510 ca         1 9X0       0.154100
      2 C16          3.5930     0.0240     0.5230 c6         1 9X0      -0.079700
      3 C15          2.5970    -1.0330     1.0840 c3         1 9X0       0.103000
      4 C21          5.0470    -0.3000     0.9700 c6         1 9X0      -0.071400
      5 C20          6.0560     0.7480     0.4380 c6         1 9X0      -0.073400
      6 C19          5.9750     0.8690    -1.1030 c6         1 9X0      -0.075400
      7 C18          4.5340     1.2010    -1.5580 c6         1 9X0      -0.073400
      8 C17          3.5200     0.1570    -1.0270 c6         1 9X0      -0.071400
      9 N14          1.1940    -0.7120     0.8040 ns         1 9X0      -0.486900
     10 C01          0.4390    -1.2570    -0.2150 c          1 9X0       0.617300
     11 O13          0.8850    -2.1110    -0.9730 o          1 9X0      -0.580100
     12 C02         -0.9500    -0.7030    -0.2890 cc         1 9X0       0.054900
     13 O11         -1.3390     0.2700     0.6330 os         1 9X0      -0.228200
     14 C09         -2.9780     1.7570     1.4990 ca         1 9X0      -0.143000
     15 C08         -4.2590     2.3350     1.5030 ca         1 9X0      -0.054000
     16 C07         -5.2070     1.9330     0.5490 ca         1 9X0      -0.145000
     17 C06         -4.8720     0.9560    -0.4030 ca         1 9X0      -0.022000
     18 C05         -3.5830     0.3800    -0.4010 ca         1 9X0      -0.228600
     19 C04         -3.2060    -0.6460    -1.3880 c          1 9X0       0.587900
     20 O12         -3.9690    -1.0540    -2.2530 o          1 9X0      -0.525100
     21 C03         -1.8490    -1.1360    -1.2520 cd         1 9X0      -0.319200
     22 H1           3.3040     0.9860     0.9690 hc         1 9X0       0.048700
     23 H2           2.8430    -2.0190     0.6700 h1         1 9X0       0.056200
     24 H3           2.7210    -1.0920     2.1740 h1         1 9X0       0.056200
     25 H4           5.1030    -0.3360     2.0670 hc         1 9X0       0.042700
     26 H5           5.3330    -1.2990     0.6120 hc         1 9X0       0.042700
     27 H6           5.8530     1.7250     0.8980 hc         1 9X0       0.040200
     28 H7           7.0750     0.4680     0.7360 hc         1 9X0       0.040200
     29 H8           6.6660     1.6490    -1.4520 hc         1 9X0       0.041200
     30 H9           6.3040    -0.0710    -1.5670 hc         1 9X0       0.041200
     31 H10          4.2540     2.2020    -1.2020 hc         1 9X0       0.040200
     32 H11          4.4890     1.2370    -2.6560 hc         1 9X0       0.040200
     33 H12          3.7170    -0.8190    -1.4940 hc         1 9X0       0.042700
     34 H13          2.5090     0.4530    -1.3370 hc         1 9X0       0.042700
     35 H14          0.7290    -0.0150     1.3760 hn         1 9X0       0.332500
     36 H15         -2.2460     2.0710     2.2390 ha         1 9X0       0.131000
     37 H16         -4.5150     3.0910     2.2420 ha         1 9X0       0.121000
     38 H17         -6.2000     2.3770     0.5470 ha         1 9X0       0.124000
     39 H18         -5.6150     0.6510    -1.1390 ha         1 9X0       0.140000
     40 H19         -1.5790    -1.8890    -1.9830 ha         1 9X0       0.238000
@<TRIPOS>BOND
     1     1    13 1   
     2     1    14 ar  
     3     1    18 ar  
     4     2     3 1   
     5     2     4 1   
     6     2     8 1   
     7     2    22 1   
     8     3     9 1   
     9     3    23 1   
    10     3    24 1   
    11     4     5 1   
    12     4    25 1   
    13     4    26 1   
    14     5     6 1   
    15     5    27 1   
    16     5    28 1   
    17     6     7 1   
    18     6    29 1   
    19     6    30 1   
    20     7     8 1   
    21     7    31 1   
    22     7    32 1   
    23     8    33 1   
    24     8    34 1   
    25     9    10 1   
    26     9    35 1   
    27    10    11 2   
    28    10    12 1   
    29    12    13 1   
    30    12    21 2   
    31    14    15 ar  
    32    14    36 1   
    33    15    16 ar  
    34    15    37 1   
    35    16    17 ar  
    36    16    38 1   
    37    17    18 ar  
    38    17    39 1   
    39    18    19 1   
    40    19    20 2   
    41    19    21 1   
    42    21    40 1   
@<TRIPOS>SUBSTRUCTURE
     1 9X0         1 TEMP              0 ****  ****    0 ROOT
