@<TRIPOS>MOLECULE
9X1
   90    97     1     0     0
SMALL
No Charge or Current Charge


@<TRIPOS>ATOM
      1 C1          -7.2490    -2.2230    -1.5060 ca         1 9X1      -0.056700
      2 C2          -7.5600    -3.5740    -1.8010 ca         1 9X1      -0.100750
      3 C3          -6.6530    -4.3800    -2.5140 ca         1 9X1      -0.084750
      4 C4          -5.4270    -3.8530    -2.9420 ca         1 9X1       0.133000
      5 C5          -5.1030    -2.5190    -2.6590 ca         1 9X1      -0.084750
      6 C6          -6.0070    -1.7110    -1.9460 ca         1 9X1      -0.100750
      7 C22         -2.3240     4.0140     1.0270 ca         1 9X1      -0.087250
      8 C24         -2.9390     2.6970    -0.9140 ca         1 9X1      -0.087250
      9 C25         -4.2900     2.7710    -0.5370 ca         1 9X1      -0.090500
     10 C26         -0.4850     3.2310    -0.5400 cp         1 9X1      -0.021000
     11 C27         -0.1010     3.2440    -1.9040 ca         1 9X1      -0.087250
     12 N33          4.5780     2.1310    -0.8600 na         1 9X1      -0.019200
     13 C34          5.5160     2.7640    -0.0410 ca         1 9X1       0.025500
     14 C35          6.3220     2.0300     0.8380 ca         1 9X1      -0.281500
     15 C36          6.2040     0.6400     0.9160 ca         1 9X1       0.462500
     16 C37          5.2520    -0.0250     0.1010 ca         1 9X1      -0.122000
     17 Cl7         -4.2960    -4.8640    -3.8320 cl         1 9X1      -0.147000
     18 N1          -8.1410    -1.3810    -0.7770 nh         1 9X1      -0.184000
     19 C8          -9.5710    -1.7610    -0.7320 c3         1 9X1       0.031400
     20 C9          -7.7950    -0.1910    -0.1500 cc         1 9X1       0.467700
     21 C10         -8.3970     1.0270    -0.5430 cc         1 9X1      -0.436100
     22 C11         -8.0320     2.2450    -0.0070 cd         1 9X1       0.114500
     23 C14         -6.8250    -0.1960     0.9140 ca         1 9X1      -0.205900
     24 C15         -6.3100    -1.3890     1.4770 ca         1 9X1      -0.045000
     25 C16         -5.4300    -1.3330     2.5650 ca         1 9X1      -0.107000
     26 C17         -5.0730    -0.0920     3.1040 ca         1 9X1      -0.026000
     27 C18         -5.5850     1.0890     2.5420 ca         1 9X1      -0.145500
     28 C13         -6.4560     1.0600     1.4250 ca         1 9X1       0.300500
     29 N12         -6.8920     2.2790     0.8330 na         1 9X1      -0.568700
     30 C19         -6.1370     3.5420     1.0570 c3         1 9X1       0.248100
     31 C20         -4.6700     3.4640     0.6300 ca         1 9X1      -0.129300
     32 C21         -3.6760     4.0910     1.4050 ca         1 9X1      -0.090500
     33 C23         -1.9260     3.3150    -0.1400 cp         1 9X1      -0.021000
     34 C31          0.5420     3.1370     0.4310 ca         1 9X1      -0.087250
     35 C30          1.8940     3.0540     0.0570 ca         1 9X1      -0.090500
     36 C28          1.2500     3.1620    -2.2810 ca         1 9X1      -0.090500
     37 C29          2.2590     3.0610    -1.3050 ca         1 9X1      -0.129300
     38 C38          4.4400     0.7260    -0.7940 ca         1 9X1       0.056200
     39 C39          3.4990     0.0380    -1.6010 ca         1 9X1      -0.145500
     40 C40          3.3600    -1.3560    -1.5200 ca         1 9X1      -0.026000
     41 C41          4.1540    -2.0880    -0.6300 ca         1 9X1      -0.107000
     42 C42          5.0920    -1.4300     0.1780 ca         1 9X1      -0.045000
     43 N43          7.0640    -0.0490     1.8000 nh         1 9X1      -0.762700
     44 C44          6.9020     0.1990     3.2570 c3         1 9X1       0.179600
     45 C45          8.1020    -0.8960     1.3210 ca         1 9X1       0.208500
     46 C46          8.7090    -1.8570     2.1610 ca         1 9X1      -0.100750
     47 C47          9.7300    -2.6970     1.6770 ca         1 9X1      -0.084750
     48 C48         10.1590    -2.5870     0.3470 ca         1 9X1       0.133000
     49 Cl5         11.4340    -3.6370    -0.2580 cl         1 9X1      -0.147000
     50 C49          9.5680    -1.6390    -0.5010 ca         1 9X1      -0.084750
     51 C50          8.5480    -0.8000    -0.0170 ca         1 9X1      -0.100750
     52 H1          -8.4950    -4.0230    -1.4760 ha         1 9X1       0.131250
     53 H2          -6.9010    -5.4160    -2.7320 ha         1 9X1       0.150750
     54 H3          -4.1520    -2.1100    -2.9920 ha         1 9X1       0.150750
     55 H4          -5.7310    -0.6770    -1.7460 ha         1 9X1       0.131250
     56 H5          -1.5790     4.5160     1.6390 ha         1 9X1       0.128750
     57 H6          -2.6750     2.1410    -1.8100 ha         1 9X1       0.128750
     58 H7          -5.0420     2.2830    -1.1540 ha         1 9X1       0.119250
     59 H8          -0.8570     3.3310    -2.6800 ha         1 9X1       0.128750
     60 H9           4.1350     3.9830    -1.7800 h1         1 9X1       0.089700
     61 H10          3.7870     2.5700    -2.7600 h1         1 9X1       0.089700
     62 H11          5.6050     3.8500    -0.1080 h4         1 9X1       0.168000
     63 H12          7.0560     2.5410     1.4550 ha         1 9X1       0.165000
     64 H13         -9.7100    -2.6480    -0.1010 h1         1 9X1       0.071700
     65 H14        -10.1860    -0.9560    -0.3100 h1         1 9X1       0.071700
     66 H15         -9.9410    -1.9740    -1.7430 h1         1 9X1       0.071700
     67 H16         -9.1650     0.9910    -1.3090 ha         1 9X1       0.233000
     68 H17         -8.4760     3.1950    -0.3130 h4         1 9X1       0.236000
     69 H18         -6.6010    -2.3670     1.0980 ha         1 9X1       0.146000
     70 H19         -5.0380    -2.2500     3.0000 ha         1 9X1       0.147500
     71 H20         -4.3990    -0.0430     3.9570 ha         1 9X1       0.142500
     72 H21         -5.2820     2.0270     2.9910 ha         1 9X1       0.141000
     73 H22         -6.6110     4.3520     0.4860 h1         1 9X1       0.089700
     74 H23         -6.2120     3.8280     2.1150 h1         1 9X1       0.089700
     75 H24         -3.9470     4.6380     2.3060 ha         1 9X1       0.119250
     76 H25          0.2880     3.1130     1.4880 ha         1 9X1       0.128750
     77 H26          2.6520     2.9840     0.8340 ha         1 9X1       0.119250
     78 H27          1.5100     3.1790    -3.3370 ha         1 9X1       0.119250
     79 H28          2.8580     0.5660    -2.3000 ha         1 9X1       0.141000
     80 H29          2.6310    -1.8680    -2.1460 ha         1 9X1       0.142500
     81 H30          4.0410    -3.1690    -0.5630 ha         1 9X1       0.147500
     82 H31          5.6870    -2.0240     0.8670 ha         1 9X1       0.146000
     83 H32          6.4750    -0.6810     3.7570 h1         1 9X1       0.071700
     84 H33          7.8680     0.4440     3.7200 h1         1 9X1       0.071700
     85 H34          6.2280     1.0460     3.4410 h1         1 9X1       0.071700
     86 H35          8.3900    -1.9730     3.1920 ha         1 9X1       0.131250
     87 H36         10.1860    -3.4340     2.3330 ha         1 9X1       0.150750
     88 H37          9.9020    -1.5530    -1.5320 ha         1 9X1       0.150750
     89 H38          8.1130    -0.0690    -0.6930 ha         1 9X1       0.131250
     90 C32          3.7240     2.9670    -1.7380 c3         1 9X1       0.099900
@<TRIPOS>BOND
     1     1     2 ar  
     2     1     6 ar  
     3     1    18 1   
     4     2     3 ar  
     5     2    52 1   
     6     3     4 ar  
     7     3    53 1   
     8     4     5 ar  
     9     4    17 1   
    10     5     6 ar  
    11     5    54 1   
    12     6    55 1   
    13     7    32 ar  
    14     7    33 ar  
    15     7    56 1   
    16     8     9 ar  
    17     8    33 ar  
    18     8    57 1   
    19     9    31 ar  
    20     9    58 1   
    21    10    11 ar  
    22    10    33 1   
    23    10    34 ar  
    24    11    36 ar  
    25    11    59 1   
    26    12    13 1   
    27    12    38 2   
    28    12    90 1   
    29    13    14 ar  
    30    13    62 1   
    31    14    15 ar  
    32    14    63 1   
    33    15    16 ar  
    34    15    43 1   
    35    16    38 ar  
    36    16    42 ar  
    37    18    19 1   
    38    18    20 2   
    39    19    64 1   
    40    19    65 1   
    41    19    66 1   
    42    20    21 1   
    43    20    23 1   
    44    21    22 2   
    45    21    67 1   
    46    22    29 1   
    47    22    68 1   
    48    23    24 ar  
    49    23    28 ar  
    50    24    25 ar  
    51    24    69 1   
    52    25    26 ar  
    53    25    70 1   
    54    26    27 ar  
    55    26    71 1   
    56    27    28 ar  
    57    27    72 1   
    58    28    29 1   
    59    29    30 1   
    60    30    31 1   
    61    30    73 1   
    62    30    74 1   
    63    31    32 ar  
    64    32    75 1   
    65    34    35 ar  
    66    34    76 1   
    67    35    37 ar  
    68    35    77 1   
    69    36    37 ar  
    70    36    78 1   
    71    37    90 1   
    72    38    39 ar  
    73    39    40 ar  
    74    39    79 1   
    75    40    41 ar  
    76    40    80 1   
    77    41    42 ar  
    78    41    81 1   
    79    42    82 1   
    80    43    44 1   
    81    43    45 1   
    82    44    83 1   
    83    44    84 1   
    84    44    85 1   
    85    45    46 ar  
    86    45    51 ar  
    87    46    47 ar  
    88    46    86 1   
    89    47    48 ar  
    90    47    87 1   
    91    48    49 1   
    92    48    50 ar  
    93    50    51 ar  
    94    50    88 1   
    95    51    89 1   
    96    60    90 1   
    97    61    90 1   
@<TRIPOS>SUBSTRUCTURE
     1 9X1         1 TEMP              0 ****  ****    0 ROOT
