@<TRIPOS>MOLECULE
9X1
   90    97     1     0     0
SMALL
abcg2


@<TRIPOS>ATOM
      1 C1          -7.3090    -2.7210    -1.0920 ca         1 9X1      -0.056700
      2 C2          -7.9260    -3.9260    -0.7800 ca         1 9X1      -0.100750
      3 C3          -7.1850    -5.0950    -0.7300 ca         1 9X1      -0.084750
      4 C4          -5.8230    -5.0470    -0.9890 ca         1 9X1       0.133000
      5 C5          -5.1980    -3.8530    -1.3110 ca         1 9X1      -0.084750
      6 C6          -5.9480    -2.6900    -1.3730 ca         1 9X1      -0.100750
      7 C22         -2.3050     3.9810     1.1490 ca         1 9X1      -0.087250
      8 C24         -2.6360     2.9230    -0.9720 ca         1 9X1      -0.087250
      9 C25         -3.9990     2.8650    -0.7340 ca         1 9X1      -0.090500
     10 C26         -0.3120     3.5320    -0.2860 cp         1 9X1      -0.021000
     11 C27          0.1890     3.8070    -1.5580 ca         1 9X1      -0.087250
     12 N33          4.7050     2.6660    -0.3320 na         1 9X1      -0.019200
     13 C34          5.4070     3.0020     0.7480 ca         1 9X1       0.025500
     14 C35          6.1560     2.1100     1.4650 ca         1 9X1      -0.281500
     15 C36          6.2520     0.7750     1.0550 ca         1 9X1       0.462500
     16 C37          5.3860     0.3660    -0.0280 ca         1 9X1      -0.122000
     17 CL7         -4.8920    -6.5030    -0.9120 cl         1 9X1      -0.147000
     18 N1          -8.0750    -1.5250    -1.1580 nh         1 9X1      -0.184000
     19 C8          -9.0930    -1.4840    -2.2040 c3         1 9X1       0.031400
     20 C9          -7.6610    -0.3760    -0.5910 cc         1 9X1       0.467700
     21 C10         -7.9990     0.8540    -1.1670 cc         1 9X1      -0.436100
     22 C11         -7.4530     2.0140    -0.6890 cd         1 9X1       0.114500
     23 C14         -6.8970    -0.3270     0.6370 ca         1 9X1      -0.205900
     24 C15         -6.7260    -1.4450     1.4780 ca         1 9X1      -0.045000
     25 C16         -6.0010    -1.3640     2.6380 ca         1 9X1      -0.107000
     26 C17         -5.4100    -0.1520     3.0070 ca         1 9X1      -0.026000
     27 C18         -5.5940     0.9710     2.2430 ca         1 9X1      -0.145500
     28 C13         -6.3610     0.9090     1.0680 ca         1 9X1       0.300500
     29 N12         -6.6280     2.0590     0.3540 na         1 9X1      -0.568700
     30 C19         -6.0130     3.3390     0.7180 c3         1 9X1       0.248100
     31 C20         -4.5300     3.3630     0.4520 ca         1 9X1      -0.129300
     32 C21         -3.6680     3.9210     1.3880 ca         1 9X1      -0.090500
     33 C23         -1.7650     3.4800    -0.0350 cp         1 9X1      -0.021000
     34 C31          0.6000     3.3040     0.7450 ca         1 9X1      -0.087250
     35 C30          1.9640     3.3460     0.5140 ca         1 9X1      -0.090500
     36 C28          1.5550     3.8470    -1.7900 ca         1 9X1      -0.090500
     37 C29          2.4570     3.6170    -0.7580 ca         1 9X1      -0.129300
     38 C38          4.6480     1.3480    -0.7320 ca         1 9X1       0.056200
     39 C39          3.8380     0.9750    -1.8170 ca         1 9X1      -0.145500
     40 C40          3.7070    -0.3460    -2.1590 ca         1 9X1      -0.026000
     41 C41          4.3560    -1.3370    -1.4170 ca         1 9X1      -0.107000
     42 C42          5.1780    -0.9840    -0.3800 ca         1 9X1      -0.045000
     43 N43          7.0960    -0.0650     1.6850 nh         1 9X1      -0.762700
     44 C44          7.7050     0.3450     2.9480 c3         1 9X1       0.179600
     45 C45          7.7500    -1.1330     1.0120 ca         1 9X1       0.208500
     46 C46          7.7900    -2.3970     1.5880 ca         1 9X1      -0.100750
     47 C47          8.4410    -3.4350     0.9430 ca         1 9X1      -0.084750
     48 C48          9.0480    -3.2000    -0.2810 ca         1 9X1       0.133000
     49 CL5          9.8520    -4.4970    -1.0950 cl         1 9X1      -0.147000
     50 C49          9.0260    -1.9400    -0.8600 ca         1 9X1      -0.084750
     51 C50          8.3840    -0.9030    -0.2030 ca         1 9X1      -0.100750
     52 H1          -8.9840    -3.9570    -0.5560 ha         1 9X1       0.131250
     53 H2          -7.6650    -6.0300    -0.4790 ha         1 9X1       0.150750
     54 H3          -4.1380    -3.8240    -1.5240 ha         1 9X1       0.150750
     55 H4          -5.4640    -1.7600    -1.6410 ha         1 9X1       0.131250
     56 H5          -1.6600     4.4340     1.8910 ha         1 9X1       0.128750
     57 H6          -2.2470     2.5070    -1.8930 ha         1 9X1       0.128750
     58 H7          -4.6400     2.4180    -1.4840 ha         1 9X1       0.119250
     59 H8          -0.4900     4.0050    -2.3780 ha         1 9X1       0.128750
     60 H9           4.3290     4.6620    -0.6820 h1         1 9X1       0.089700
     61 H10          4.1540     3.6520    -2.0920 h1         1 9X1       0.089700
     62 H11          5.3900     4.0450     1.0270 h4         1 9X1       0.168000
     63 H12          6.7200     2.5000     2.2960 ha         1 9X1       0.165000
     64 H13         -9.4640    -2.4900    -2.3730 h1         1 9X1       0.071700
     65 H14         -9.9320    -0.8650    -1.8930 h1         1 9X1       0.071700
     66 H15         -8.6900    -1.1050    -3.1450 h1         1 9X1       0.071700
     67 H16         -8.6160     0.9270    -2.0470 ha         1 9X1       0.233000
     68 H17         -7.6520     2.9530    -1.1840 h4         1 9X1       0.236000
     69 H18         -7.1940    -2.3850     1.2340 ha         1 9X1       0.146000
     70 H19         -5.8950    -2.2360     3.2680 ha         1 9X1       0.147500
     71 H20         -4.8240    -0.0860     3.9140 ha         1 9X1       0.142500
     72 H21         -5.1570     1.9000     2.5740 ha         1 9X1       0.141000
     73 H22         -6.5160     4.1070     0.1320 h1         1 9X1       0.089700
     74 H23         -6.2320     3.5590     1.7620 h1         1 9X1       0.089700
     75 H24         -4.0620     4.3140     2.3180 ha         1 9X1       0.119250
     76 H25          0.2430     3.0680     1.7400 ha         1 9X1       0.128750
     77 H26          2.6360     3.1580     1.3420 ha         1 9X1       0.119250
     78 H27          1.9180     4.0660    -2.7870 ha         1 9X1       0.119250
     79 H28          3.2950     1.7130    -2.3860 ha         1 9X1       0.141000
     80 H29          3.0780    -0.6160    -2.9960 ha         1 9X1       0.142500
     81 H30          4.2100    -2.3810    -1.6560 ha         1 9X1       0.147500
     82 H31          5.6500    -1.7720     0.1850 ha         1 9X1       0.146000
     83 H32          8.1580    -0.5220     3.4170 h1         1 9X1       0.071700
     84 H33          8.4810     1.0980     2.7930 h1         1 9X1       0.071700
     85 H34          6.9500     0.7380     3.6260 h1         1 9X1       0.071700
     86 H35          7.2970    -2.5840     2.5330 ha         1 9X1       0.131250
     87 H36          8.4610    -4.4200     1.3890 ha         1 9X1       0.150750
     88 H37          9.5130    -1.7600    -1.8080 ha         1 9X1       0.150750
     89 H38          8.3800     0.0840    -0.6470 ha         1 9X1       0.131250
     90 C32          3.9380     3.7050    -1.0260 c3         1 9X1       0.099900
@<TRIPOS>BOND
     1     1     2 ar  
     2     1     6 ar  
     3     1    18 1   
     4     2     3 ar  
     5     2    52 1   
     6     3     4 ar  
     7     3    53 1   
     8     4     5 ar  
     9     4    17 1   
    10     5     6 ar  
    11     5    54 1   
    12     6    55 1   
    13     7    32 ar  
    14     7    33 ar  
    15     7    56 1   
    16     8     9 ar  
    17     8    33 ar  
    18     8    57 1   
    19     9    31 ar  
    20     9    58 1   
    21    10    11 ar  
    22    10    33 1   
    23    10    34 ar  
    24    11    36 ar  
    25    11    59 1   
    26    12    13 1   
    27    12    38 2   
    28    12    90 1   
    29    13    14 ar  
    30    13    62 1   
    31    14    15 ar  
    32    14    63 1   
    33    15    16 ar  
    34    15    43 1   
    35    16    38 ar  
    36    16    42 ar  
    37    18    19 1   
    38    18    20 2   
    39    19    64 1   
    40    19    65 1   
    41    19    66 1   
    42    20    21 1   
    43    20    23 1   
    44    21    22 2   
    45    21    67 1   
    46    22    29 1   
    47    22    68 1   
    48    23    24 ar  
    49    23    28 ar  
    50    24    25 ar  
    51    24    69 1   
    52    25    26 ar  
    53    25    70 1   
    54    26    27 ar  
    55    26    71 1   
    56    27    28 ar  
    57    27    72 1   
    58    28    29 1   
    59    29    30 1   
    60    30    31 1   
    61    30    73 1   
    62    30    74 1   
    63    31    32 ar  
    64    32    75 1   
    65    34    35 ar  
    66    34    76 1   
    67    35    37 ar  
    68    35    77 1   
    69    36    37 ar  
    70    36    78 1   
    71    37    90 1   
    72    38    39 ar  
    73    39    40 ar  
    74    39    79 1   
    75    40    41 ar  
    76    40    80 1   
    77    41    42 ar  
    78    41    81 1   
    79    42    82 1   
    80    43    44 1   
    81    43    45 1   
    82    44    83 1   
    83    44    84 1   
    84    44    85 1   
    85    45    46 ar  
    86    45    51 ar  
    87    46    47 ar  
    88    46    86 1   
    89    47    48 ar  
    90    47    87 1   
    91    48    49 1   
    92    48    50 ar  
    93    50    51 ar  
    94    50    88 1   
    95    51    89 1   
    96    60    90 1   
    97    61    90 1   
@<TRIPOS>SUBSTRUCTURE
     1 9X1         1 TEMP              0 ****  ****    0 ROOT
