@<TRIPOS>MOLECULE
9X2
   69    73     1     0     0
SMALL
No Charge or Current Charge


@<TRIPOS>ATOM
      1 N1          40.9140     4.0560   132.7620 n          1 9X2      -0.421800
      2 N3          44.5390     7.6310   136.0940 nb         1 9X2      -0.620000
      3 C4          39.6760     3.8700   131.9340 c6         1 9X2       0.101000
      4 C5          42.1700     3.3680   132.3060 c6         1 9X2       0.101000
      5 C6          41.9760     2.0660   131.5010 c6         1 9X2      -0.094900
      6 C7          40.9650     5.1370   133.6730 c          1 9X2       0.674100
      7 C8          42.6950     6.3720   135.0850 ca         1 9X2       0.522900
      8 C10         43.5790     8.2620   136.8230 ca         1 9X2       0.226900
      9 C13         47.5090     5.7260   133.7620 c5         1 9X2       0.117700
     10 C15         48.4000     7.7330   132.8340 ca         1 9X2      -0.093300
     11 C17         48.8170     6.1130   134.5570 c5         1 9X2      -0.049600
     12 C20         49.3590     9.9530   132.7070 ca         1 9X2      -0.110000
     13 C21         48.5220     8.9590   132.1620 ca         1 9X2      -0.093000
     14 C22         44.9880     3.4070   128.2540 c5         1 9X2       0.093500
     15 C24         46.3750     3.7500   130.1870 c5         1 9X2      -0.096400
     16 N           42.6390     3.0660   128.7540 ns         1 9X2      -0.502900
     17 C           43.6480     4.0080   128.8470 c          1 9X2       0.564100
     18 O           43.4640     5.1430   129.2720 o          1 9X2      -0.611100
     19 C1          41.2810     3.2480   129.2820 c3         1 9X2       0.095000
     20 C11         42.2030     7.9450   136.6990 ca         1 9X2       0.361900
     21 C14         47.5640     6.5490   132.4120 c5         1 9X2      -0.049600
     22 C16         49.0870     7.4940   134.0090 ca         1 9X2      -0.093300
     23 C18         49.9280     8.4710   134.5660 ca         1 9X2      -0.093000
     24 C19         50.0600     9.7090   133.9070 ca         1 9X2      -0.110000
     25 C2          40.9110     2.2170   130.3950 c6         1 9X2      -0.080700
     26 C23         45.7410     2.6080   129.3490 c5         1 9X2      -0.080400
     27 C25         46.6840     4.8500   129.1260 c5         1 9X2       0.162800
     28 C3          39.5850     2.5640   131.1020 c6         1 9X2      -0.094900
     29 C9          44.0940     6.6650   135.2180 ca         1 9X2       0.166500
     30 N2          42.2090     5.3840   134.2080 ns         1 9X2      -0.340900
     31 N4          41.7490     6.9970   135.8350 nb         1 9X2      -0.679000
     32 N5          46.4290     6.3600   134.5380 ns         1 9X2      -0.468900
     33 N6          46.0380     4.4050   127.8600 n7         1 9X2      -0.860400
     34 O1          39.9680     5.7990   133.9260 o          1 9X2      -0.586100
     35 O2          44.8620     4.9600   133.6580 o          1 9X2      -0.651100
     36 H1          39.5990     4.7260   131.2500 h1         1 9X2       0.064200
     37 H2          38.7940     3.9180   132.5890 h1         1 9X2       0.064200
     38 H3          42.7470     4.0770   131.6950 h1         1 9X2       0.064200
     39 H4          42.7910     3.1200   133.1780 h1         1 9X2       0.064200
     40 H5          41.6700     1.2660   132.1910 hc         1 9X2       0.050950
     41 H6          42.9360     1.7400   131.0820 hc         1 9X2       0.050950
     42 H7          43.9140     9.0280   137.5210 h4         1 9X2       0.035100
     43 H8          47.3780     4.6430   133.6260 h1         1 9X2       0.077700
     44 H9          48.6860     6.0890   135.6450 hc         1 9X2       0.066200
     45 H10         49.6390     5.4300   134.3150 hc         1 9X2       0.066200
     46 H11         49.4650    10.9100   132.2010 ha         1 9X2       0.112500
     47 H12         47.9790     9.1400   131.2370 ha         1 9X2       0.115000
     48 H13         44.7170     2.7680   127.4010 h1         1 9X2       0.076700
     49 H14         47.2750     3.4240   130.7210 hc         1 9X2       0.051200
     50 H15         45.6740     4.1260   130.9420 hc         1 9X2       0.051200
     51 H16         42.8830     2.1650   128.3600 hn         1 9X2       0.308500
     52 H17         41.1840     4.2650   129.6820 h1         1 9X2       0.059700
     53 H18         40.5660     3.1510   128.4540 h1         1 9X2       0.059700
     54 H19         41.4560     8.4600   137.3000 h4         1 9X2       0.033100
     55 H20         46.5740     6.8250   132.0300 hc         1 9X2       0.066200
     56 H21         48.0690     5.9780   131.6270 hc         1 9X2       0.066200
     57 H22         50.4670     8.2760   135.4890 ha         1 9X2       0.115000
     58 H23         50.7070    10.4790   134.3240 ha         1 9X2       0.112500
     59 H24         40.7990     1.2470   129.8910 hc         1 9X2       0.044700
     60 H25         46.5140     1.9690   128.9050 hc         1 9X2       0.053200
     61 H26         45.0860     1.9590   129.9410 hc         1 9X2       0.053200
     62 H27         46.2770     5.8180   129.4530 h1         1 9X2       0.046200
     63 H28         47.7650     4.9820   128.9800 h1         1 9X2       0.046200
     64 H29         38.7720     2.6500   130.3680 hc         1 9X2       0.050950
     65 H30         39.3030     1.7380   131.7690 hc         1 9X2       0.050950
     66 H31         42.9410     4.7830   133.8560 hn         1 9X2       0.209000
     67 H32         46.5600     7.1530   135.1580 hn         1 9X2       0.350500
     68 H33         45.6150     5.2080   127.3740 hn         1 9X2       0.435000
     69 C12         45.1310     5.9060   134.3920 c          1 9X2       0.521600
@<TRIPOS>BOND
     1     1     3 1   
     2     1     4 1   
     3     1     6 1   
     4     2     8 ar  
     5     2    29 ar  
     6     3    28 1   
     7     3    36 1   
     8     3    37 1   
     9     4     5 1   
    10     4    38 1   
    11     4    39 1   
    12     5    25 1   
    13     5    40 1   
    14     5    41 1   
    15     6    30 1   
    16     6    34 2   
    17     7    29 ar  
    18     7    30 1   
    19     7    31 ar  
    20     8    20 ar  
    21     8    42 1   
    22     9    11 1   
    23     9    21 1   
    24     9    32 1   
    25     9    43 1   
    26    10    13 ar  
    27    10    21 1   
    28    10    22 ar  
    29    11    22 1   
    30    11    44 1   
    31    11    45 1   
    32    12    13 ar  
    33    12    24 ar  
    34    12    46 1   
    35    13    47 1   
    36    14    17 1   
    37    14    26 1   
    38    14    33 1   
    39    14    48 1   
    40    15    26 1   
    41    15    27 1   
    42    15    49 1   
    43    15    50 1   
    44    16    17 1   
    45    16    19 1   
    46    16    51 1   
    47    17    18 2   
    48    19    25 1   
    49    19    52 1   
    50    19    53 1   
    51    20    31 ar  
    52    20    54 1   
    53    21    55 1   
    54    21    56 1   
    55    22    23 ar  
    56    23    24 ar  
    57    23    57 1   
    58    24    58 1   
    59    25    28 1   
    60    25    59 1   
    61    26    60 1   
    62    26    61 1   
    63    27    33 1   
    64    27    62 1   
    65    27    63 1   
    66    28    64 1   
    67    28    65 1   
    68    29    69 1   
    69    30    66 1   
    70    32    67 1   
    71    32    69 1   
    72    33    68 1   
    73    35    69 2   
@<TRIPOS>SUBSTRUCTURE
     1 9X2         1 TEMP              0 ****  ****    0 ROOT
