@<TRIPOS>MOLECULE
9X2
   69    73     1     0     0
SMALL
abcg2


@<TRIPOS>ATOM
      1 N1          41.5260     5.0670   131.9030 n          1 9X2      -0.421800
      2 N3          44.8710     6.7270   136.4860 nb         1 9X2      -0.620000
      3 C4          40.2720     5.0120   131.1690 c6         1 9X2       0.101000
      4 C5          42.5580     4.2080   131.3400 c6         1 9X2       0.101000
      5 C6          42.0780     2.7630   131.2950 c6         1 9X2      -0.094900
      6 C7          41.5770     5.6760   133.1130 c          1 9X2       0.674100
      7 C8          43.2150     6.0510   134.9180 ca         1 9X2       0.522900
      8 C10         43.9840     6.5420   137.4470 ca         1 9X2       0.226900
      9 C13         47.9100     7.3440   133.8080 c5         1 9X2       0.117700
     10 C15         48.4340     9.6550   134.0570 ca         1 9X2      -0.093300
     11 C17         49.1630     7.4850   134.6860 c5         1 9X2      -0.049600
     12 C20         49.0320    11.7160   135.1160 ca         1 9X2      -0.110000
     13 C21         48.3410    11.0370   134.1160 ca         1 9X2      -0.093000
     14 C22         44.0730     1.2300   127.5930 c5         1 9X2       0.093500
     15 C24         45.7450     1.5060   129.2650 c5         1 9X2      -0.096400
     16 N           41.9060     1.9280   128.4290 ns         1 9X2      -0.502900
     17 C           43.1090     2.3500   127.9990 c          1 9X2       0.564100
     18 O           43.4280     3.5300   127.9370 o          1 9X2      -0.611100
     19 C1          40.9050     2.7860   129.0170 c3         1 9X2       0.095000
     20 C11         42.7140     6.0800   137.1340 ca         1 9X2       0.361900
     21 C14         47.8070     8.7000   133.0810 c5         1 9X2      -0.049600
     22 C16         49.2100     8.9590   134.9800 ca         1 9X2      -0.093300
     23 C18         49.9010     9.6330   135.9740 ca         1 9X2      -0.093000
     24 C19         49.8060    11.0200   136.0380 ca         1 9X2      -0.110000
     25 C2          40.7630     2.6040   130.5350 c6         1 9X2      -0.080700
     26 C23         44.6430     0.5390   128.8380 c5         1 9X2      -0.080400
     27 C25         46.2710     2.0650   127.9360 c5         1 9X2       0.162800
     28 C3          39.7320     3.5870   131.0980 c6         1 9X2      -0.094900
     29 C9          44.5260     6.4910   135.2330 ca         1 9X2       0.166500
     30 N2          42.8710     5.7950   133.6230 ns         1 9X2      -0.340900
     31 N4          42.3400     5.8330   135.8930 nb         1 9X2      -0.679000
     32 N5          46.7600     7.1100   134.6610 ns         1 9X2      -0.468900
     33 N6          45.2640     1.7060   126.9290 n7         1 9X2      -0.860400
     34 O1          40.6020     6.1300   133.6830 o          1 9X2      -0.586100
     35 O2          45.3770     6.4600   133.0010 o          1 9X2      -0.651100
     36 H1          40.4500     5.4070   130.1640 h1         1 9X2       0.064200
     37 H2          39.5470     5.6690   131.6410 h1         1 9X2       0.064200
     38 H3          42.8050     4.5650   130.3380 h1         1 9X2       0.064200
     39 H4          43.4710     4.2560   131.9250 h1         1 9X2       0.064200
     40 H5          41.9390     2.4100   132.3210 hc         1 9X2       0.050950
     41 H6          42.8620     2.1390   130.8620 hc         1 9X2       0.050950
     42 H7          44.2820     6.7480   138.4670 h4         1 9X2       0.035100
     43 H8          47.9980     6.5150   133.1050 h1         1 9X2       0.077700
     44 H9          49.1320     6.8530   135.5760 hc         1 9X2       0.066200
     45 H10         50.0450     7.1810   134.1150 hc         1 9X2       0.066200
     46 H11         48.9620    12.7950   135.1790 ha         1 9X2       0.112500
     47 H12         47.7370    11.5830   133.4020 ha         1 9X2       0.115000
     48 H13         43.5300     0.5170   126.9620 h1         1 9X2       0.076700
     49 H14         46.5250     1.0210   129.8520 hc         1 9X2       0.051200
     50 H15         45.3260     2.3020   129.8830 hc         1 9X2       0.051200
     51 H16         41.7330     0.9350   128.4560 hn         1 9X2       0.308500
     52 H17         41.1590     3.8130   128.7600 h1         1 9X2       0.059700
     53 H18         39.9390     2.5760   128.5500 h1         1 9X2       0.059700
     54 H19         41.9850     5.8940   137.9150 h4         1 9X2       0.033100
     55 H20         46.7830     8.9560   132.8070 hc         1 9X2       0.066200
     56 H21         48.3870     8.6660   132.1540 hc         1 9X2       0.066200
     57 H22         50.5010     9.0930   136.6970 ha         1 9X2       0.115000
     58 H23         50.3330    11.5600   136.8130 ha         1 9X2       0.112500
     59 H24         40.3940     1.5870   130.7060 hc         1 9X2       0.044700
     60 H25         45.0600    -0.4270   128.5500 hc         1 9X2       0.053200
     61 H26         43.8980     0.3580   129.6120 hc         1 9X2       0.053200
     62 H27         46.4300     3.1440   128.0000 h1         1 9X2       0.046200
     63 H28         47.2340     1.6170   127.6780 h1         1 9X2       0.046200
     64 H29         38.8220     3.5810   130.4920 hc         1 9X2       0.050950
     65 H30         39.4430     3.2700   132.1030 hc         1 9X2       0.050950
     66 H31         43.6500     5.9140   132.9780 hn         1 9X2       0.209000
     67 H32         46.8280     7.2780   135.6550 hn         1 9X2       0.350500
     68 H33         45.0670     2.4760   126.3050 hn         1 9X2       0.435000
     69 C12         45.5870     6.6880   134.1950 c          1 9X2       0.521600
@<TRIPOS>BOND
     1     1     3 1   
     2     1     4 1   
     3     1     6 1   
     4     2     8 ar  
     5     2    29 ar  
     6     3    28 1   
     7     3    36 1   
     8     3    37 1   
     9     4     5 1   
    10     4    38 1   
    11     4    39 1   
    12     5    25 1   
    13     5    40 1   
    14     5    41 1   
    15     6    30 1   
    16     6    34 2   
    17     7    29 ar  
    18     7    30 1   
    19     7    31 ar  
    20     8    20 ar  
    21     8    42 1   
    22     9    11 1   
    23     9    21 1   
    24     9    32 1   
    25     9    43 1   
    26    10    13 ar  
    27    10    21 1   
    28    10    22 ar  
    29    11    22 1   
    30    11    44 1   
    31    11    45 1   
    32    12    13 ar  
    33    12    24 ar  
    34    12    46 1   
    35    13    47 1   
    36    14    17 1   
    37    14    26 1   
    38    14    33 1   
    39    14    48 1   
    40    15    26 1   
    41    15    27 1   
    42    15    49 1   
    43    15    50 1   
    44    16    17 1   
    45    16    19 1   
    46    16    51 1   
    47    17    18 2   
    48    19    25 1   
    49    19    52 1   
    50    19    53 1   
    51    20    31 ar  
    52    20    54 1   
    53    21    55 1   
    54    21    56 1   
    55    22    23 ar  
    56    23    24 ar  
    57    23    57 1   
    58    24    58 1   
    59    25    28 1   
    60    25    59 1   
    61    26    60 1   
    62    26    61 1   
    63    27    33 1   
    64    27    62 1   
    65    27    63 1   
    66    28    64 1   
    67    28    65 1   
    68    29    69 1   
    69    30    66 1   
    70    32    67 1   
    71    32    69 1   
    72    33    68 1   
    73    35    69 2   
@<TRIPOS>SUBSTRUCTURE
     1 9X2         1 TEMP              0 ****  ****    0 ROOT
