@<TRIPOS>MOLECULE
9X3
   36    37     1     0     0
SMALL
bcc


@<TRIPOS>ATOM
      1 C10         -2.2940    -0.4090    -0.3870 ca         1 9X3      -0.095300
      2 C01         -2.7670    -1.6490     0.0460 ca         1 9X3      -0.099000
      3 N01         -3.5990     1.1710     0.9240 n7         1 9X3      -0.802200
      4 C02         -0.9610    -0.2900    -0.7530 ca         1 9X3      -0.103000
      5 C03          3.7560     1.5920    -0.6960 c6         1 9X3       0.130400
      6 C04         -1.9170    -2.7400     0.0970 ca         1 9X3      -0.136000
      7 C05          3.2190     0.2800    -1.2360 c6         1 9X3       0.127800
      8 N            1.9500    -0.0260    -0.6050 n3         1 9X3      -0.722600
      9 C06         -0.0920    -1.3810    -0.7040 ca         1 9X3      -0.092300
     10 C07          2.6720     1.2450     1.3310 c6         1 9X3       0.130400
     11 C08         -4.5060     2.3010     0.9350 c3         1 9X3       0.143100
     12 O            3.8990     1.5570     0.7070 os         1 9X3      -0.404600
     13 C11         -0.5820    -2.6060    -0.2730 ca         1 9X3      -0.123000
     14 C            2.1130    -0.0730     0.8350 c6         1 9X3       0.127800
     15 CAK          1.3460    -1.2300    -1.1320 c3         1 9X3       0.217100
     16 CAJ         -3.2140     0.7810    -0.4200 c3         1 9X3       0.202100
     17 H01         -3.8040    -1.7550     0.3400 ha         1 9X3       0.139000
     18 H02         -0.5790     0.6720    -1.0730 ha         1 9X3       0.141000
     19 HAJ1        -2.7380     1.5990    -0.9830 h1         1 9X3       0.036200
     20 HAJ2        -4.1250     0.5220    -0.9690 h1         1 9X3       0.036200
     21 H04         -2.2890    -3.7010     0.4300 ha         1 9X3       0.131000
     22 HA          -2.7640     1.4120     1.4440 hn         1 9X3       0.354800
     23 H081        -4.1340     3.1860     0.4000 h1         1 9X3       0.029033
     24 H082        -5.4560     2.0190     0.4760 h1         1 9X3       0.029033
     25 H083        -4.7140     2.5970     1.9640 h1         1 9X3       0.029033
     26 H032         3.0810     2.4070    -0.9940 h1         1 9X3       0.049700
     27 H051         3.0760     0.3730    -2.3160 h1         1 9X3       0.042950
     28 H052         3.9640    -0.5180    -1.0750 h1         1 9X3       0.042950
     29 H11          0.0820    -3.4610    -0.2210 ha         1 9X3       0.127000
     30 HC1          1.1470    -0.2500     1.3120 h1         1 9X3       0.042950
     31 HC2          2.7790    -0.9000     1.1410 h1         1 9X3       0.042950
     32 HAK1         1.3890    -1.1740    -2.2250 h1         1 9X3       0.038700
     33 HAK2         1.9060    -2.1370    -0.8490 h1         1 9X3       0.038700
     34 H071         2.8560     1.1980     2.4060 h1         1 9X3       0.049700
     35 H072         1.9340     2.0390     1.1470 h1         1 9X3       0.049700
     36 H031         4.7400     1.8000    -1.1190 h1         1 9X3       0.049700
@<TRIPOS>BOND
     1     1     2 ar  
     2     1     4 ar  
     3     1    16 1   
     4     2     6 ar  
     5     2    17 1   
     6     3    11 1   
     7     3    16 1   
     8     3    22 1   
     9     4     9 ar  
    10     4    18 1   
    11     5     7 1   
    12     5    12 1   
    13     5    26 1   
    14     5    36 1   
    15     6    13 ar  
    16     6    21 1   
    17     7     8 1   
    18     7    27 1   
    19     7    28 1   
    20     8    14 1   
    21     8    15 1   
    22     9    13 ar  
    23     9    15 1   
    24    10    12 1   
    25    10    14 1   
    26    10    34 1   
    27    10    35 1   
    28    11    23 1   
    29    11    24 1   
    30    11    25 1   
    31    13    29 1   
    32    14    30 1   
    33    14    31 1   
    34    15    32 1   
    35    15    33 1   
    36    16    19 1   
    37    16    20 1   
@<TRIPOS>SUBSTRUCTURE
     1 9X3         1 TEMP              0 ****  ****    0 ROOT
