@<TRIPOS>MOLECULE
9X3
   36    37     1     0     0
SMALL
No Charge or Current Charge


@<TRIPOS>ATOM
      1 C10         -2.4650    -0.5010    -0.3530 ca         1 9X3      -0.095300
      2 C01         -2.7440    -1.7280     0.2790 ca         1 9X3      -0.081000
      3 N01         -3.6450     1.3480     0.7670 n7         1 9X3      -0.857400
      4 C02         -1.1750    -0.2690    -0.8730 ca         1 9X3      -0.085000
      5 C03          3.9960     1.5780    -0.5210 c6         1 9X3       0.153600
      6 C04         -1.7450    -2.7110     0.3890 ca         1 9X3      -0.118000
      7 C05          3.2460     0.4460    -1.2850 c6         1 9X3       0.127800
      8 N            1.9590     0.0810    -0.6150 n3         1 9X3      -0.722600
      9 C06         -0.1700    -1.2500    -0.7670 ca         1 9X3      -0.092300
     10 C07          2.9600     0.9190     1.5530 c6         1 9X3       0.153600
     11 C08         -4.6360     2.4400     0.7410 c3         1 9X3       0.143100
     12 O            4.2010     1.2010     0.8620 os         1 9X3      -0.451000
     13 C11         -0.4620    -2.4740    -0.1320 ca         1 9X3      -0.105000
     14 C            2.1860    -0.2270     0.8330 c6         1 9X3       0.127800
     15 CAK          1.2220    -0.9850    -1.3350 c3         1 9X3       0.217100
     16 CAJ         -3.5480     0.5620    -0.4760 c3         1 9X3       0.202100
     17 H01         -3.7340    -1.9180     0.6870 ha         1 9X3       0.121000
     18 H02         -0.9490     0.6780    -1.3590 ha         1 9X3       0.123000
     19 HAJ1        -3.3130     1.2180    -1.3260 h1         1 9X3       0.036200
     20 HAJ2        -4.5070     0.0730    -0.6970 h1         1 9X3       0.036200
     21 H04         -1.9660    -3.6570     0.8800 ha         1 9X3       0.113000
     22 HA          -2.7200     1.7560     0.9490 hn         1 9X3       0.410000
     23 H081        -4.3980     3.1680    -0.0470 h1         1 9X3       0.029033
     24 H082        -5.6450     2.0490     0.5540 h1         1 9X3       0.029033
     25 H083        -4.6500     2.9720     1.7020 h1         1 9X3       0.029033
     26 H032         3.4110     2.5090    -0.5600 h1         1 9X3       0.049700
     27 H051         3.0580     0.7810    -2.3160 h1         1 9X3       0.042950
     28 H052         3.9060    -0.4320    -1.3470 h1         1 9X3       0.042950
     29 H11          0.3050    -3.2390    -0.0410 ha         1 9X3       0.109000
     30 HC1          1.2290    -0.3770     1.3530 h1         1 9X3       0.042950
     31 HC2          2.7600    -1.1600     0.9400 h1         1 9X3       0.042950
     32 HAK1         1.1050    -0.7040    -2.3910 h1         1 9X3       0.038700
     33 HAK2         1.8030    -1.9180    -1.3190 h1         1 9X3       0.038700
     34 H071         3.1830     0.6270     2.5890 h1         1 9X3       0.049700
     35 H072         2.3440     1.8290     1.5790 h1         1 9X3       0.049700
     36 H031         4.9700     1.7660    -0.9920 h1         1 9X3       0.049700
@<TRIPOS>BOND
     1     1     2 ar  
     2     1     4 ar  
     3     1    16 1   
     4     2     6 ar  
     5     2    17 1   
     6     3    11 1   
     7     3    16 1   
     8     3    22 1   
     9     4     9 ar  
    10     4    18 1   
    11     5     7 1   
    12     5    12 1   
    13     5    26 1   
    14     5    36 1   
    15     6    13 ar  
    16     6    21 1   
    17     7     8 1   
    18     7    27 1   
    19     7    28 1   
    20     8    14 1   
    21     8    15 1   
    22     9    13 ar  
    23     9    15 1   
    24    10    12 1   
    25    10    14 1   
    26    10    34 1   
    27    10    35 1   
    28    11    23 1   
    29    11    24 1   
    30    11    25 1   
    31    13    29 1   
    32    14    30 1   
    33    14    31 1   
    34    15    32 1   
    35    15    33 1   
    36    16    19 1   
    37    16    20 1   
@<TRIPOS>SUBSTRUCTURE
     1 9X3         1 TEMP              0 ****  ****    0 ROOT
