@<TRIPOS>MOLECULE
9X4
   58    62     1     0     0
SMALL
abcg2


@<TRIPOS>ATOM
      1 C14        -17.5730    -7.7370    25.4180 ca         1 9X4      -0.114000
      2 C5         -18.3200   -12.1890    30.6200 cc         1 9X4       0.446300
      3 C11        -18.1370    -9.2150    28.7810 cg         1 9X4      -0.097000
      4 C7         -18.9860   -10.8400    30.7200 c3         1 9X4       0.028800
      5 C8         -20.5190   -11.0170    30.5880 c3         1 9X4      -0.082600
      6 C9         -18.6510   -10.2000    32.0900 c3         1 9X4      -0.082600
      7 C10        -18.4990    -9.9730    29.6440 c1         1 9X4      -0.106100
      8 C12        -17.7100    -8.3320    27.7450 ca         1 9X4       0.029000
      9 C13        -18.0100    -8.6030    26.4040 ca         1 9X4      -0.072000
     10 C3         -17.2060   -13.9490    30.1510 cd         1 9X4       0.227900
     11 C2         -17.9380   -14.2450    31.2480 cc         1 9X4       0.110300
     12 N4         -17.4610   -12.6330    29.7620 nd         1 9X4      -0.658000
     13 O6         -18.6610   -13.1110    31.5580 os         1 9X4      -0.283000
     14 C15        -16.8350    -6.5870    25.7070 ca         1 9X4      -0.048300
     15 C16        -16.5350    -6.3030    27.0560 ca         1 9X4      -0.119500
     16 C17        -16.9790    -7.1840    28.0490 ca         1 9X4      -0.054000
     17 C18        -15.7690    -5.1350    27.5290 cc         1 9X4       0.485000
     18 N19        -15.5990    -4.8740    28.8160 nd         1 9X4      -0.694000
     19 C20        -14.8610    -3.7320    28.9050 cd         1 9X4       0.199500
     20 C21        -14.5330    -3.2840    27.6280 cc         1 9X4      -0.176600
     21 N22        -15.1330    -4.1850    26.7690 na         1 9X4      -0.115500
     22 C23        -15.2200    -4.0590    25.3120 cy         1 9X4       0.056300
     23 C24        -16.6720    -4.2040    24.8070 cy         1 9X4      -0.093900
     24 C25        -16.4030    -5.7160    24.5670 cy         1 9X4      -0.045400
     25 C26        -14.8830    -5.3790    24.5890 cy         1 9X4      -0.093900
     26 C27        -13.6050    -2.2200    27.1390 c          1 9X4       0.620700
     27 O28        -13.0170    -2.3290    26.0550 o          1 9X4      -0.634100
     28 N29        -13.4460    -1.1660    27.9470 ns         1 9X4      -0.484900
     29 C30        -12.4720    -0.1340    27.6470 c3         1 9X4       0.094300
     30 C31        -14.5500    -3.1880    30.2500 c          1 9X4       0.547600
     31 O32        -14.1100    -2.0450    30.4410 o          1 9X4      -0.651100
     32 N33        -14.8060    -4.0300    31.2620 nt         1 9X4      -0.574000
     33 H1         -17.8070    -7.9510    24.3830 ha         1 9X4       0.116000
     34 H2         -20.8890   -11.6500    31.3950 hc         1 9X4       0.049867
     35 H3         -21.0030   -10.0430    30.6530 hc         1 9X4       0.049867
     36 H4         -20.7730   -11.4750    29.6320 hc         1 9X4       0.049867
     37 H5         -19.0170   -10.8360    32.8950 hc         1 9X4       0.049867
     38 H6         -17.5750   -10.0700    32.2000 hc         1 9X4       0.049867
     39 H7         -19.1340    -9.2260    32.1620 hc         1 9X4       0.049867
     40 H8         -18.5790    -9.4860    26.1460 ha         1 9X4       0.127000
     41 H9         -16.5180   -14.5810    29.6150 h4         1 9X4       0.047100
     42 H10        -19.1500   -15.7610    32.1290 hc         1 9X4       0.057033
     43 H11        -17.4940   -16.2470    31.7310 hc         1 9X4       0.057033
     44 H12        -17.8060   -15.2200    33.1390 hc         1 9X4       0.057033
     45 H13        -16.7440    -6.9670    29.0800 ha         1 9X4       0.140000
     46 H14        -14.6670    -3.1780    25.0270 h1         1 9X4       0.125700
     47 H15        -16.7990    -3.6700    23.8670 hc         1 9X4       0.073200
     48 H16        -17.4700    -3.9340    25.4970 hc         1 9X4       0.073200
     49 H17        -16.7840    -6.1240    23.6340 hc         1 9X4       0.073700
     50 H18        -14.2190    -6.0720    25.1040 hc         1 9X4       0.073200
     51 H19        -14.5070    -5.1800    23.5870 hc         1 9X4       0.073200
     52 H20        -13.8010    -1.2500    28.9020 hn         1 9X4       0.368500
     53 H21        -12.5360     0.6310    28.4180 h1         1 9X4       0.042033
     54 H22        -11.4550    -0.5360    27.6250 h1         1 9X4       0.042033
     55 H23        -12.6790     0.3190    26.6770 h1         1 9X4       0.042033
     56 H24        -14.6890    -3.7150    32.2110 hn         1 9X4       0.331000
     57 H25        -15.2100    -4.9340    31.0780 hn         1 9X4       0.331000
     58 C1         -18.1080   -15.4330    32.1110 c3         1 9X4      -0.116400
@<TRIPOS>BOND
     1     1     9 ar  
     2     1    14 ar  
     3     1    33 1   
     4     2     4 1   
     5     2    12 2   
     6     2    13 1   
     7     3     7 3   
     8     3     8 1   
     9     4     5 1   
    10     4     6 1   
    11     4     7 1   
    12     5    34 1   
    13     5    35 1   
    14     5    36 1   
    15     6    37 1   
    16     6    38 1   
    17     6    39 1   
    18     8     9 ar  
    19     8    16 ar  
    20     9    40 1   
    21    10    11 2   
    22    10    12 1   
    23    10    41 1   
    24    11    13 1   
    25    11    58 1   
    26    14    15 ar  
    27    14    24 1   
    28    15    16 ar  
    29    15    17 1   
    30    16    45 1   
    31    17    18 2   
    32    17    21 1   
    33    18    19 1   
    34    19    20 2   
    35    19    30 1   
    36    20    21 1   
    37    20    26 1   
    38    21    22 1   
    39    22    23 1   
    40    22    25 1   
    41    22    46 1   
    42    23    24 1   
    43    23    47 1   
    44    23    48 1   
    45    24    25 1   
    46    24    49 1   
    47    25    50 1   
    48    25    51 1   
    49    26    27 2   
    50    26    28 1   
    51    28    29 1   
    52    28    52 1   
    53    29    53 1   
    54    29    54 1   
    55    29    55 1   
    56    30    31 2   
    57    30    32 1   
    58    32    56 1   
    59    32    57 1   
    60    42    58 1   
    61    43    58 1   
    62    44    58 1   
@<TRIPOS>SUBSTRUCTURE
     1 9X4         1 TEMP              0 ****  ****    0 ROOT
