@<TRIPOS>MOLECULE
9X4
   58    62     1     0     0
SMALL
No Charge or Current Charge


@<TRIPOS>ATOM
      1 C14        -16.8890    -8.2590    25.5970 ca         1 9X4      -0.114000
      2 C5         -19.0140   -12.2490    30.7330 cc         1 9X4       0.446300
      3 C11        -17.9350    -9.3480    29.0140 cg         1 9X4      -0.097000
      4 C7         -18.9470   -10.7590    31.0670 c3         1 9X4       0.028800
      5 C8         -20.3660   -10.2010    31.3700 c3         1 9X4      -0.082600
      6 C9         -18.0450   -10.5100    32.3090 c3         1 9X4      -0.082600
      7 C10        -18.3850   -10.0050    29.9310 c1         1 9X4      -0.106100
      8 C12        -17.4060    -8.5540    27.9430 ca         1 9X4       0.029000
      9 C13        -17.4020    -9.0480    26.6350 ca         1 9X4      -0.072000
     10 C3         -19.5430   -14.1840    29.9950 cd         1 9X4       0.227900
     11 C2         -18.3410   -14.2840    30.6500 cc         1 9X4       0.110300
     12 N4         -19.9710   -12.8720    30.0490 nd         1 9X4      -0.658000
     13 O6         -17.9840   -13.0640    31.1220 os         1 9X4      -0.283000
     14 C15        -16.3690    -6.9700    25.8440 ca         1 9X4      -0.048300
     15 C16        -16.3610    -6.4540    27.1750 ca         1 9X4      -0.119500
     16 C17        -16.8930    -7.2750    28.2050 ca         1 9X4      -0.054000
     17 C18        -15.8270    -5.1230    27.5620 cc         1 9X4       0.485000
     18 N19        -15.8730    -4.6770    28.7990 nd         1 9X4      -0.694000
     19 C20        -15.2310    -3.4460    28.8440 cd         1 9X4       0.199500
     20 C21        -14.7280    -3.1430    27.5640 cc         1 9X4      -0.176600
     21 N22        -15.2160    -4.1880    26.7500 na         1 9X4      -0.115500
     22 C23        -15.1180    -4.3100    25.3000 cy         1 9X4       0.056300
     23 C24        -16.3790    -4.7300    24.4850 cy         1 9X4      -0.093900
     24 C25        -15.8650    -6.1960    24.6230 cy         1 9X4      -0.045400
     25 C26        -14.4310    -5.5750    24.7040 cy         1 9X4      -0.093900
     26 C27        -13.8440    -1.9960    27.1260 c          1 9X4       0.620700
     27 O28        -13.4500    -1.8560    25.9780 o          1 9X4      -0.634100
     28 N29        -13.4310    -1.0830    28.0580 ns         1 9X4      -0.484900
     29 C30        -12.5610     0.0620    27.7810 c3         1 9X4       0.094300
     30 C31        -15.1510    -2.6620    30.1540 c          1 9X4       0.547600
     31 O32        -14.6690    -1.5600    30.3560 o          1 9X4      -0.651100
     32 N33        -15.7150    -3.2990    31.2060 nt         1 9X4      -0.574000
     33 H1         -16.9030    -8.6590    24.5860 ha         1 9X4       0.116000
     34 H2         -20.8250   -10.7410    32.2070 hc         1 9X4       0.049867
     35 H3         -20.3240    -9.1370    31.6380 hc         1 9X4       0.049867
     36 H4         -21.0280   -10.3000    30.5000 hc         1 9X4       0.049867
     37 H5         -18.4120   -11.0760    33.1740 hc         1 9X4       0.049867
     38 H6         -17.0090   -10.8190    32.1180 hc         1 9X4       0.049867
     39 H7         -18.0300    -9.4470    32.5830 hc         1 9X4       0.049867
     40 H8         -17.7990   -10.0380    26.4190 ha         1 9X4       0.127000
     41 H9         -20.1100   -14.9620    29.4990 h4         1 9X4       0.047100
     42 H10        -17.3040   -15.6220    31.9790 hc         1 9X4       0.057033
     43 H11        -17.8510   -16.3720    30.4650 hc         1 9X4       0.057033
     44 H12        -16.4450   -15.2880    30.4590 hc         1 9X4       0.057033
     45 H13        -16.9100    -6.9230    29.2340 ha         1 9X4       0.140000
     46 H14        -14.7120    -3.3810    24.9050 h1         1 9X4       0.125700
     47 H15        -16.3950    -4.3520    23.4550 hc         1 9X4       0.073200
     48 H16        -17.3480    -4.5110    24.9480 hc         1 9X4       0.073200
     49 H17        -16.0080    -6.7680    23.6990 hc         1 9X4       0.073700
     50 H18        -13.7180    -6.0900    25.3570 hc         1 9X4       0.073200
     51 H19        -13.9540    -5.4100    23.7310 hc         1 9X4       0.073200
     52 H20        -13.7720    -1.2010    29.0040 hn         1 9X4       0.368500
     53 H21        -12.3790     0.6160    28.7110 h1         1 9X4       0.042033
     54 H22        -11.6030    -0.2890    27.3760 h1         1 9X4       0.042033
     55 H23        -13.0440     0.7270    27.0530 h1         1 9X4       0.042033
     56 H24        -15.7210    -2.8620    32.1140 hn         1 9X4       0.331000
     57 H25        -16.1290    -4.2090    31.0570 hn         1 9X4       0.331000
     58 C1         -17.4360   -15.4570    30.9020 c3         1 9X4      -0.116400
@<TRIPOS>BOND
     1     1     9 ar  
     2     1    14 ar  
     3     1    33 1   
     4     2     4 1   
     5     2    12 2   
     6     2    13 1   
     7     3     7 3   
     8     3     8 1   
     9     4     5 1   
    10     4     6 1   
    11     4     7 1   
    12     5    34 1   
    13     5    35 1   
    14     5    36 1   
    15     6    37 1   
    16     6    38 1   
    17     6    39 1   
    18     8     9 ar  
    19     8    16 ar  
    20     9    40 1   
    21    10    11 2   
    22    10    12 1   
    23    10    41 1   
    24    11    13 1   
    25    11    58 1   
    26    14    15 ar  
    27    14    24 1   
    28    15    16 ar  
    29    15    17 1   
    30    16    45 1   
    31    17    18 2   
    32    17    21 1   
    33    18    19 1   
    34    19    20 2   
    35    19    30 1   
    36    20    21 1   
    37    20    26 1   
    38    21    22 1   
    39    22    23 1   
    40    22    25 1   
    41    22    46 1   
    42    23    24 1   
    43    23    47 1   
    44    23    48 1   
    45    24    25 1   
    46    24    49 1   
    47    25    50 1   
    48    25    51 1   
    49    26    27 2   
    50    26    28 1   
    51    28    29 1   
    52    28    52 1   
    53    29    53 1   
    54    29    54 1   
    55    29    55 1   
    56    30    31 2   
    57    30    32 1   
    58    32    56 1   
    59    32    57 1   
    60    42    58 1   
    61    43    58 1   
    62    44    58 1   
@<TRIPOS>SUBSTRUCTURE
     1 9X4         1 TEMP              0 ****  ****    0 ROOT
