@<TRIPOS>MOLECULE
9X5
   29    31     1     0     0
SMALL
bcc


@<TRIPOS>ATOM
      1 C3          -0.7210     1.5590     1.2670 c3         1 9X5       0.147100
      2 C4          -1.5730     0.5410     0.5700 ca         1 9X5      -0.075300
      3 C1           1.8170     2.4490    -1.3130 c3         1 9X5      -0.134400
      4 C2           1.0210     1.6920    -0.2880 ce         1 9X5       0.472900
      5 N1           0.0490     2.2850     0.2750 n2         1 9X5      -0.578900
      6 C5          -2.9500     0.6910     0.4660 ca         1 9X5      -0.113000
      7 C6          -3.7170    -0.2440    -0.2150 ca         1 9X5      -0.122000
      8 C7          -3.1000    -1.3380    -0.8070 ca         1 9X5      -0.129000
      9 C8          -1.7260    -1.4940    -0.7090 ca         1 9X5      -0.115000
     10 C9          -0.9450    -0.5630    -0.0220 cp         1 9X5      -0.039000
     11 C10          0.5110    -0.7610     0.1060 cp         1 9X5      -0.009000
     12 C11          0.9950    -2.0550     0.3240 ca         1 9X5      -0.124000
     13 C12          2.3490    -2.3150     0.4310 ca         1 9X5      -0.118000
     14 C13          3.2620    -1.2750     0.3070 ca         1 9X5      -0.131000
     15 C14          2.8040     0.0090     0.0740 ca         1 9X5      -0.108000
     16 C15          1.4380     0.2920    -0.0150 ca         1 9X5      -0.169900
     17 H1          -1.3470     2.2680     1.8080 h1         1 9X5       0.060200
     18 H2          -0.0730     1.0670     2.0030 h1         1 9X5       0.060200
     19 H3           1.3300     3.3940    -1.5430 hc         1 9X5       0.052700
     20 H4           2.8230     2.6680    -0.9530 hc         1 9X5       0.052700
     21 H5           1.9280     1.8700    -2.2310 hc         1 9X5       0.052700
     22 H6          -3.4260     1.5470     0.9270 ha         1 9X5       0.135000
     23 H7          -4.7890    -0.1160    -0.2870 ha         1 9X5       0.133000
     24 H8          -3.6860    -2.0670    -1.3500 ha         1 9X5       0.132000
     25 H9          -1.2530    -2.3410    -1.1900 ha         1 9X5       0.132000
     26 H10          0.2910    -2.8700     0.4360 ha         1 9X5       0.135000
     27 H11          2.6910    -3.3250     0.6160 ha         1 9X5       0.133000
     28 H12          4.3240    -1.4640     0.3920 ha         1 9X5       0.134000
     29 H13          3.5250     0.8100    -0.0230 ha         1 9X5       0.133000
@<TRIPOS>BOND
     1     1     2 1   
     2     1     5 1   
     3     1    17 1   
     4     1    18 1   
     5     2     6 ar  
     6     2    10 ar  
     7     3     4 1   
     8     3    19 1   
     9     3    20 1   
    10     3    21 1   
    11     4     5 2   
    12     4    16 1   
    13     6     7 ar  
    14     6    22 1   
    15     7     8 ar  
    16     7    23 1   
    17     8     9 ar  
    18     8    24 1   
    19     9    10 ar  
    20     9    25 1   
    21    10    11 1   
    22    11    12 ar  
    23    11    16 ar  
    24    12    13 ar  
    25    12    26 1   
    26    13    14 ar  
    27    13    27 1   
    28    14    15 ar  
    29    14    28 1   
    30    15    16 ar  
    31    15    29 1   
@<TRIPOS>SUBSTRUCTURE
     1 9X5         1 TEMP              0 ****  ****    0 ROOT
