@<TRIPOS>MOLECULE
9X5
   29    31     1     0     0
SMALL
No Charge or Current Charge


@<TRIPOS>ATOM
      1 C3          -0.7270     1.5660     1.3110 c3         1 9X5       0.147100
      2 C4          -1.5740     0.5420     0.5760 ca         1 9X5      -0.075300
      3 C1           1.8550     2.5000    -1.3300 c3         1 9X5      -0.134400
      4 C2           1.0670     1.7080    -0.3060 ce         1 9X5       0.472900
      5 N1           0.1000     2.2860     0.3410 n2         1 9X5      -0.578900
      6 C5          -2.9700     0.7220     0.4950 ca         1 9X5      -0.095000
      7 C6          -3.7680    -0.2090    -0.1880 ca         1 9X5      -0.104000
      8 C7          -3.1750    -1.3240    -0.7970 ca         1 9X5      -0.111000
      9 C8          -1.7850    -1.5070    -0.7210 ca         1 9X5      -0.097000
     10 C9          -0.9590    -0.5790    -0.0370 cp         1 9X5      -0.039000
     11 C10          0.5210    -0.7950     0.0600 cp         1 9X5      -0.009000
     12 C11          1.0120    -2.1070     0.2870 ca         1 9X5      -0.106000
     13 C12          2.3840    -2.3680     0.4010 ca         1 9X5      -0.100000
     14 C13          3.3010    -1.3160     0.2960 ca         1 9X5      -0.113000
     15 C14          2.8450    -0.0090     0.0700 ca         1 9X5      -0.090000
     16 C15          1.4650     0.2730    -0.0670 ca         1 9X5      -0.169900
     17 H1          -1.3790     2.2660     1.8500 h1         1 9X5       0.060200
     18 H2          -0.1090     1.0580     2.0640 h1         1 9X5       0.060200
     19 H3           1.1830     2.9860    -2.0460 hc         1 9X5       0.052700
     20 H4           2.4500     3.2820    -0.8460 hc         1 9X5       0.052700
     21 H5           2.5360     1.8660    -1.9080 hc         1 9X5       0.052700
     22 H6          -3.4380     1.5870     0.9610 ha         1 9X5       0.117000
     23 H7          -4.8450    -0.0630    -0.2470 ha         1 9X5       0.115000
     24 H8          -3.7910    -2.0460    -1.3300 ha         1 9X5       0.114000
     25 H9          -1.3410    -2.3730    -1.2070 ha         1 9X5       0.114000
     26 H10          0.3140    -2.9330     0.3950 ha         1 9X5       0.117000
     27 H11          2.7340    -3.3820     0.5800 ha         1 9X5       0.115000
     28 H12          4.3670    -1.5120     0.3940 ha         1 9X5       0.116000
     29 H13          3.5780     0.7930     0.0060 ha         1 9X5       0.115000
@<TRIPOS>BOND
     1     1     2 1   
     2     1     5 1   
     3     1    17 1   
     4     1    18 1   
     5     2     6 ar  
     6     2    10 ar  
     7     3     4 1   
     8     3    19 1   
     9     3    20 1   
    10     3    21 1   
    11     4     5 2   
    12     4    16 1   
    13     6     7 ar  
    14     6    22 1   
    15     7     8 ar  
    16     7    23 1   
    17     8     9 ar  
    18     8    24 1   
    19     9    10 ar  
    20     9    25 1   
    21    10    11 1   
    22    11    12 ar  
    23    11    16 ar  
    24    12    13 ar  
    25    12    26 1   
    26    13    14 ar  
    27    13    27 1   
    28    14    15 ar  
    29    14    28 1   
    30    15    16 ar  
    31    15    29 1   
@<TRIPOS>SUBSTRUCTURE
     1 9X5         1 TEMP              0 ****  ****    0 ROOT
