@<TRIPOS>MOLECULE
9X6
   13    12     1     0     0
SMALL
abcg2


@<TRIPOS>ATOM
      1 C3          -2.6920     0.0410     0.0270 c          1 9X6       0.730000
      2 C4          -1.3330     0.7660     0.0340 c3         1 9X6      -0.090900
      3 C2           1.4180     0.7560     0.0280 c3         1 9X6      -0.090900
      4 C1           2.7700     0.0210     0.0070 c          1 9X6       0.730000
      5 S2           0.0380    -0.4140     0.0150 ss         1 9X6      -0.372000
      6 O4          -2.6710    -1.2030     0.0090 o          1 9X6      -0.746000
      7 O3          -3.6940     0.7800     0.0400 o          1 9X6      -0.746000
      8 O2           3.7780     0.7530    -0.0150 o          1 9X6      -0.746000
      9 O1           2.7410    -1.2230     0.0140 o          1 9X6      -0.746000
     10 H41C        -1.2710     1.4310    -0.8330 h1         1 9X6       0.018950
     11 H42C        -1.2670     1.4080     0.9190 h1         1 9X6       0.018950
     12 H21C         1.3640     1.3920     0.9170 h1         1 9X6       0.018950
     13 H22C         1.3530     1.4270    -0.8340 h1         1 9X6       0.018950
@<TRIPOS>BOND
     1     1     2 1   
     2     1     6 1   
     3     1     7 1   
     4     2     5 1   
     5     2    10 1   
     6     2    11 1   
     7     3     4 1   
     8     3     5 1   
     9     3    12 1   
    10     3    13 1   
    11     4     8 1   
    12     4     9 1   
@<TRIPOS>SUBSTRUCTURE
     1 9X6         1 TEMP              0 ****  ****    0 ROOT
