@<TRIPOS>MOLECULE
9X6
   13    12     1     0     0
SMALL
No Charge or Current Charge


@<TRIPOS>ATOM
      1 C3          -2.7770     0.1270    -0.1960 c          1 9X6       0.730000
      2 C4          -1.3840     0.6930     0.1870 c3         1 9X6      -0.090900
      3 C2           1.4660     0.6940     0.1860 c3         1 9X6      -0.090900
      4 C1           2.8590     0.1300    -0.2000 c          1 9X6       0.730000
      5 S2           0.0410    -0.2980    -0.4870 ss         1 9X6      -0.372000
      6 O4          -3.3020    -0.6830     0.5560 o          1 9X6      -0.746000
      7 O3          -3.3040     0.5270    -1.2250 o          1 9X6      -0.746000
      8 O2           3.3840     0.5310    -1.2290 o          1 9X6      -0.746000
      9 O1           3.3870    -0.6790     0.5520 o          1 9X6      -0.746000
     10 H41C        -1.3070     1.7210    -0.1870 h1         1 9X6       0.018950
     11 H42C        -1.3060     0.7240     1.2810 h1         1 9X6       0.018950
     12 H21C         1.3890     0.7250     1.2800 h1         1 9X6       0.018950
     13 H22C         1.3870     1.7230    -0.1890 h1         1 9X6       0.018950
@<TRIPOS>BOND
     1     1     2 1   
     2     1     6 1   
     3     1     7 1   
     4     2     5 1   
     5     2    10 1   
     6     2    11 1   
     7     3     4 1   
     8     3     5 1   
     9     3    12 1   
    10     3    13 1   
    11     4     8 1   
    12     4     9 1   
@<TRIPOS>SUBSTRUCTURE
     1 9X6         1 TEMP              0 ****  ****    0 ROOT
