@<TRIPOS>MOLECULE
9X7
   16    15     1     0     0
SMALL
No Charge or Current Charge


@<TRIPOS>ATOM
      1 C1           3.2620     0.6170    -0.0080 c3         1 9X7      -0.097100
      2 C2           2.1470    -0.4390     0.0530 c3         1 9X7       0.161600
      3 O1           0.8900     0.2560    -0.0140 os         1 9X7      -0.414100
      4 C3          -0.2710    -0.4880     0.0240 c          1 9X7       0.483100
      5 C4          -1.6030     0.3870    -0.0570 c          1 9X7       0.519100
      6 C5          -2.9370    -0.3690    -0.0190 c3         1 9X7      -0.187100
      7 O3          -1.5760     1.6130    -0.1460 o          1 9X7      -0.461100
      8 O2          -0.2850    -1.7150     0.1130 o          1 9X7      -0.477000
      9 H1           3.1790     1.3150     0.8340 hc         1 9X7       0.049700
     10 H2           4.2450     0.1340     0.0410 hc         1 9X7       0.049700
     11 H3           3.2040     1.1870    -0.9430 hc         1 9X7       0.049700
     12 H4           2.2560    -1.1350    -0.7890 h1         1 9X7       0.050200
     13 H5           2.2310    -1.0070     0.9900 h1         1 9X7       0.050200
     14 H6          -2.9640    -0.9930     0.8810 hc         1 9X7       0.074367
     15 H7          -3.8040     0.2990    -0.0790 hc         1 9X7       0.074367
     16 H8          -2.9420    -1.1170    -0.8190 hc         1 9X7       0.074367
@<TRIPOS>BOND
     1     1     2 1   
     2     1     9 1   
     3     1    10 1   
     4     1    11 1   
     5     2     3 1   
     6     2    12 1   
     7     2    13 1   
     8     3     4 1   
     9     4     5 1   
    10     4     8 2   
    11     5     6 1   
    12     5     7 2   
    13     6    14 1   
    14     6    15 1   
    15     6    16 1   
@<TRIPOS>SUBSTRUCTURE
     1 9X7         1 TEMP              0 ****  ****    0 ROOT
