@<TRIPOS>MOLECULE
9X7
   16    15     1     0     0
SMALL
abcg2


@<TRIPOS>ATOM
      1 C1           3.1760     0.6210     0.0160 c3         1 9X7      -0.097100
      2 C2           2.0950    -0.4300     0.0320 c3         1 9X7       0.161600
      3 O1           0.8220     0.2440    -0.0440 os         1 9X7      -0.414100
      4 C3          -0.2610    -0.4900    -0.0010 c          1 9X7       0.483100
      5 C4          -1.5340     0.3690    -0.0900 c          1 9X7       0.519100
      6 C5          -2.8190    -0.3830     0.0100 c3         1 9X7      -0.187100
      7 O3          -1.4410     1.5600    -0.2330 o          1 9X7      -0.461100
      8 O2          -0.3010    -1.6890     0.0940 o          1 9X7      -0.477000
      9 H1           3.0950     1.2920     0.8710 hc         1 9X7       0.049700
     10 H2           4.1470     0.1300     0.0670 hc         1 9X7       0.049700
     11 H3           3.1480     1.2130    -0.8990 hc         1 9X7       0.049700
     12 H4           2.1910    -1.1090    -0.8160 h1         1 9X7       0.050200
     13 H5           2.1340    -1.0230     0.9470 h1         1 9X7       0.050200
     14 H6          -2.8630    -0.9360     0.9490 hc         1 9X7       0.074367
     15 H7          -3.6660     0.2960    -0.0480 hc         1 9X7       0.074367
     16 H8          -2.8920    -1.1200    -0.7920 hc         1 9X7       0.074367
@<TRIPOS>BOND
     1     1     2 1   
     2     1     9 1   
     3     1    10 1   
     4     1    11 1   
     5     2     3 1   
     6     2    12 1   
     7     2    13 1   
     8     3     4 1   
     9     4     5 1   
    10     4     8 2   
    11     5     6 1   
    12     5     7 2   
    13     6    14 1   
    14     6    15 1   
    15     6    16 1   
@<TRIPOS>SUBSTRUCTURE
     1 9X7         1 TEMP              0 ****  ****    0 ROOT
