@<TRIPOS>MOLECULE
9X8
   62    65     1     0     0
SMALL
abcg2


@<TRIPOS>ATOM
      1 C1           3.6470    -1.9430     0.2360 ca         1 9X8       0.108500
      2 C2           3.0770    -2.3310    -0.9660 ca         1 9X8      -0.077600
      3 C3           3.0320    -3.7140    -1.2170 ca         1 9X8       0.432900
      4 C4           2.9650    -0.2180    -0.9330 cc         1 9X8       0.467700
      5 N1           3.5310    -4.5370    -0.2870 nb         1 9X8      -0.328000
      6 N2           4.1470    -2.7480     1.1700 nb         1 9X8      -0.211000
      7 C7          -5.4050    -1.7300     0.1560 c5         1 9X8       0.079300
      8 C8          -5.1250    -0.7320    -0.9660 c5         1 9X8       0.126300
      9 O2          -5.1420    -1.2500    -2.2570 oh         1 9X8      -0.676000
     10 C9          -4.7360    -1.0640     1.3650 c5         1 9X8       0.376300
     11 O3          -4.1410    -2.0130     2.1690 oh         1 9X8      -0.660000
     12 O4          -3.7850    -0.1590     0.8320 os         1 9X8      -0.437000
     13 C10         -3.7370    -0.2280    -0.5830 c5         1 9X8       0.172300
     14 C11         -3.4210     1.1310    -1.1580 c3         1 9X8       0.231600
     15 O5          -2.1080     1.4900    -0.7910 os         1 9X8      -0.562400
     16 P1          -1.5910     2.9960    -1.2180 p5         1 9X8       1.459800
     17 O6          -1.4300     3.0690    -2.7030 o          1 9X8      -0.849500
     18 O7          -2.4040     4.0190    -0.4880 o          1 9X8      -0.849500
     19 O8          -0.1350     2.8100    -0.4850 os         1 9X8      -0.685800
     20 P2           1.2240     3.5930    -0.9590 p5         1 9X8       1.466800
     21 O9           0.8990     5.0090    -1.3150 o          1 9X8      -0.852000
     22 O10          2.0160     2.7400    -1.9050 o          1 9X8      -0.852000
     23 O11          1.9200     3.5470     0.5320 os         1 9X8      -0.567400
     24 C13          3.6840     2.5330     1.7830 c5         1 9X8       0.155300
     25 O12          3.0830     1.2510     1.5760 os         1 9X8      -0.405000
     26 C14          5.1840     2.2850     1.8410 c5         1 9X8       0.098300
     27 O13          5.5430     1.9500     3.1570 oh         1 9X8      -0.715000
     28 C15          5.3140     1.0720     0.9140 c5         1 9X8       0.066300
     29 O14          6.4480     0.2860     1.1280 oh         1 9X8      -0.707000
     30 C16          4.0550     0.2900     1.2850 c5         1 9X8       0.324300
     31 N3           3.5710    -0.5800     0.2420 na         1 9X8      -0.290300
     32 N4           2.6550    -1.2390    -1.6800 nd         1 9X8      -0.568100
     33 C17          4.0440    -4.0200     0.8260 ca         1 9X8       0.144900
     34 N5           2.5250    -4.2270    -2.3400 nv         1 9X8      -1.080900
     35 H1           2.7530     0.8160    -1.1820 h5         1 9X8       0.157800
     36 H2          -4.5110    -6.1510     0.1680 hc         1 9X8       0.073367
     37 H3          -4.1640    -5.2050    -1.2900 hc         1 9X8       0.073367
     38 H4          -3.1870    -4.9710     0.1510 hc         1 9X8       0.073367
     39 H9          -6.0560    -1.3520    -2.5400 ho         1 9X8       0.490000
     40 H10         -5.4740    -0.4780     1.9220 h2         1 9X8       0.042700
     41 H11         -4.0540    -1.6620     3.0610 ho         1 9X8       0.460000
     42 H12         -2.9760    -0.9480    -0.9160 h1         1 9X8       0.084700
     43 H13         -3.5280     1.0770    -2.2480 h1         1 9X8       0.021700
     44 H14         -4.1550     1.8590    -0.7910 h1         1 9X8       0.021700
     45 H19          3.3150     2.9310     2.7330 h1         1 9X8       0.091700
     46 H20          5.7560     3.1460     1.4710 h1         1 9X8       0.046700
     47 H21          6.3730     1.4590     3.1230 ho         1 9X8       0.502000
     48 H22          5.2440     1.4060    -0.1290 h1         1 9X8       0.076700
     49 H23          7.1810     0.6580     0.6280 ho         1 9X8       0.497000
     50 H24          4.2570    -0.3580     2.1460 h2         1 9X8       0.093700
     51 H25          4.4260    -4.7410     1.5410 h5         1 9X8       0.021100
     52 H26          2.0940    -3.6380    -3.0300 hn         1 9X8       0.497000
     53 H27          2.4700    -5.2230    -2.4620 hn         1 9X8       0.497000
     54 H7          -6.4650    -1.9270     0.3220 h1         1 9X8       0.083700
     55 O1          -4.7250    -2.9330    -0.1710 os         1 9X8      -0.319100
     56 C6          -5.1330    -4.1050     0.2570 cs         1 9X8       0.533500
     57 C12          3.3200     3.4880     0.6600 c3         1 9X8       0.221600
     58 H8          -5.8410     0.0940    -0.8450 h1         1 9X8       0.050700
     59 H17          3.7930     3.1710    -0.2750 h1         1 9X8       0.012700
     60 H18          3.7240     4.4760     0.9080 h1         1 9X8       0.012700
     61 C5          -4.2000    -5.1790    -0.1990 c3         1 9X8      -0.142100
     62 S1          -6.4840    -4.3910     1.1350 s          1 9X8      -0.607400
@<TRIPOS>BOND
     1     1     2 ar  
     2     1     6 ar  
     3     1    31 1   
     4     2     3 ar  
     5     2    32 1   
     6     3     5 ar  
     7     3    34 1   
     8     4    31 1   
     9     4    32 2   
    10     4    35 1   
    11     5    33 ar  
    12     6    33 ar  
    13     7     8 1   
    14     7    10 1   
    15     7    54 1   
    16     7    55 1   
    17     8     9 1   
    18     8    13 1   
    19     8    58 1   
    20     9    39 1   
    21    10    11 1   
    22    10    12 1   
    23    10    40 1   
    24    11    41 1   
    25    12    13 1   
    26    13    14 1   
    27    13    42 1   
    28    14    15 1   
    29    14    43 1   
    30    14    44 1   
    31    15    16 1   
    32    16    17 1   
    33    16    18 1   
    34    16    19 1   
    35    19    20 1   
    36    20    21 1   
    37    20    22 1   
    38    20    23 1   
    39    23    57 1   
    40    24    25 1   
    41    24    26 1   
    42    24    45 1   
    43    24    57 1   
    44    25    30 1   
    45    26    27 1   
    46    26    28 1   
    47    26    46 1   
    48    27    47 1   
    49    28    29 1   
    50    28    30 1   
    51    28    48 1   
    52    29    49 1   
    53    30    31 1   
    54    30    50 1   
    55    33    51 1   
    56    34    52 1   
    57    34    53 1   
    58    36    61 1   
    59    37    61 1   
    60    38    61 1   
    61    55    56 1   
    62    56    61 1   
    63    56    62 2   
    64    57    59 1   
    65    57    60 1   
@<TRIPOS>SUBSTRUCTURE
     1 9X8         1 TEMP              0 ****  ****    0 ROOT
