@<TRIPOS>MOLECULE
9X8
   62    65     1     0     0
SMALL
No Charge or Current Charge


@<TRIPOS>ATOM
      1 C1           2.1450    -1.5020    -0.2430 ca         1 9X8       0.108500
      2 C2           2.7690    -2.5290    -0.9060 ca         1 9X8      -0.077600
      3 C3           1.9940    -3.3370    -1.7660 ca         1 9X8       0.432900
      4 C4           4.3170    -1.5960     0.2690 cc         1 9X8       0.467700
      5 N1           0.6820    -3.1110    -1.9390 nb         1 9X8      -0.328000
      6 N2           0.8250    -1.2600    -0.3830 nb         1 9X8      -0.211000
      7 C7          -3.8940    -2.0520     0.9810 c5         1 9X8       0.079300
      8 C8          -4.3970    -0.6120     0.6660 c5         1 9X8       0.126300
      9 O2          -5.1990    -0.5400    -0.5240 oh         1 9X8      -0.676000
     10 C9          -2.6720    -1.7360     1.9430 c5         1 9X8       0.376300
     11 O3          -1.4810    -2.4360     1.6450 oh         1 9X8      -0.660000
     12 O4          -2.4040    -0.3310     1.8050 os         1 9X8      -0.437000
     13 C10         -3.0360     0.1360     0.5910 c5         1 9X8       0.172300
     14 C11         -3.1730     1.6880     0.6110 c3         1 9X8       0.231600
     15 O5          -1.9130     2.3200     0.3340 os         1 9X8      -0.562400
     16 P1          -1.4700     2.6280    -1.1860 p5         1 9X8       1.459800
     17 O6          -1.7470     1.4470    -2.0540 o          1 9X8      -0.849500
     18 O7          -2.1580     3.8700    -1.6490 o          1 9X8      -0.849500
     19 O8           0.0550     2.8490    -0.8650 os         1 9X8      -0.685800
     20 P2           0.9790     2.8190    -2.1400 p5         1 9X8       1.466800
     21 O9           0.5100     3.7140    -3.2400 o          1 9X8      -0.852000
     22 O10          1.3160     1.4520    -2.6350 o          1 9X8      -0.852000
     23 O11          2.2810     3.4980    -1.4660 os         1 9X8      -0.567400
     24 C13          2.5950     2.5170     0.7960 c5         1 9X8       0.155300
     25 O12          2.0090     1.1920     0.8850 os         1 9X8      -0.405000
     26 C14          3.6730     2.5060     1.9300 c5         1 9X8       0.098300
     27 O13          3.1150     2.6010     3.2490 oh         1 9X8      -0.715000
     28 C15          4.2810     1.0960     1.6840 c5         1 9X8       0.066300
     29 O14          5.0500     0.6350     2.8130 oh         1 9X8      -0.707000
     30 C16          2.9830     0.2510     1.4040 c5         1 9X8       0.324300
     31 N3           3.1260    -0.8930     0.4960 na         1 9X8      -0.290300
     32 N4           4.1320    -2.6090    -0.6040 nd         1 9X8      -0.568100
     33 C17          0.1610    -2.0770    -1.2340 ca         1 9X8       0.144900
     34 N5           2.5150    -4.3780    -2.4710 nv         1 9X8      -1.080900
     35 H1           5.2530    -1.3360     0.7540 h5         1 9X8       0.157800
     36 H2          -1.7740    -5.0100    -1.4860 hc         1 9X8       0.073367
     37 H3          -3.4360    -5.0510    -2.1090 hc         1 9X8       0.073367
     38 H4          -2.4650    -3.5740    -2.2650 hc         1 9X8       0.073367
     39 H9          -4.8060    -1.1800    -1.1620 ho         1 9X8       0.490000
     40 H10         -2.9580    -1.9330     2.9840 h2         1 9X8       0.042700
     41 H11         -0.7960    -1.7350     1.6170 ho         1 9X8       0.460000
     42 H12         -2.4460    -0.1860    -0.2760 h1         1 9X8       0.084700
     43 H13         -3.9210     1.9880    -0.1350 h1         1 9X8       0.021700
     44 H14         -3.5470     2.0020     1.5930 h1         1 9X8       0.021700
     45 H19          1.8280     3.2770     0.9950 h1         1 9X8       0.091700
     46 H20          4.4210     3.2970     1.7790 h1         1 9X8       0.046700
     47 H21          3.6330     1.9530     3.7850 ho         1 9X8       0.502000
     48 H22          4.9120     1.1170     0.7830 h1         1 9X8       0.076700
     49 H23          5.9310     1.0810     2.7830 ho         1 9X8       0.497000
     50 H24          2.6020    -0.1600     2.3470 h2         1 9X8       0.093700
     51 H25         -0.9020    -1.8830    -1.3640 h5         1 9X8       0.021100
     52 H26          3.5290    -4.4280    -2.5290 hn         1 9X8       0.497000
     53 H27          1.9930    -4.7250    -3.2710 hn         1 9X8       0.497000
     54 H7          -4.6830    -2.6610     1.4420 h1         1 9X8       0.083700
     55 O1          -3.4260    -2.6230    -0.2840 os         1 9X8      -0.319100
     56 C6          -3.2050    -3.9710    -0.2600 cs         1 9X8       0.533500
     57 C12          3.1920     2.7610    -0.6300 c3         1 9X8       0.221600
     58 H8          -4.9760    -0.2270     1.5170 h1         1 9X8       0.050700
     59 H17          3.4660     1.8030    -1.0910 h1         1 9X8       0.012700
     60 H18          4.1180     3.3410    -0.5250 h1         1 9X8       0.012700
     61 C5          -2.6910    -4.4230    -1.6090 c3         1 9X8      -0.142100
     62 S1          -3.6580    -5.0760     0.9310 s          1 9X8      -0.607400
@<TRIPOS>BOND
     1     1     2 ar  
     2     1     6 ar  
     3     1    31 1   
     4     2     3 ar  
     5     2    32 1   
     6     3     5 ar  
     7     3    34 1   
     8     4    31 1   
     9     4    32 2   
    10     4    35 1   
    11     5    33 ar  
    12     6    33 ar  
    13     7     8 1   
    14     7    10 1   
    15     7    54 1   
    16     7    55 1   
    17     8     9 1   
    18     8    13 1   
    19     8    58 1   
    20     9    39 1   
    21    10    11 1   
    22    10    12 1   
    23    10    40 1   
    24    11    41 1   
    25    12    13 1   
    26    13    14 1   
    27    13    42 1   
    28    14    15 1   
    29    14    43 1   
    30    14    44 1   
    31    15    16 1   
    32    16    17 1   
    33    16    18 1   
    34    16    19 1   
    35    19    20 1   
    36    20    21 1   
    37    20    22 1   
    38    20    23 1   
    39    23    57 1   
    40    24    25 1   
    41    24    26 1   
    42    24    45 1   
    43    24    57 1   
    44    25    30 1   
    45    26    27 1   
    46    26    28 1   
    47    26    46 1   
    48    27    47 1   
    49    28    29 1   
    50    28    30 1   
    51    28    48 1   
    52    29    49 1   
    53    30    31 1   
    54    30    50 1   
    55    33    51 1   
    56    34    52 1   
    57    34    53 1   
    58    36    61 1   
    59    37    61 1   
    60    38    61 1   
    61    55    56 1   
    62    56    61 1   
    63    56    62 2   
    64    57    59 1   
    65    57    60 1   
@<TRIPOS>SUBSTRUCTURE
     1 9X8         1 TEMP              0 ****  ****    0 ROOT
