@<TRIPOS>MOLECULE
9X9
   35    36     1     0     0
SMALL
bcc


@<TRIPOS>ATOM
      1 C4          -2.0440    -2.3350     0.0400 ca         1 9X9       0.698900
      2 C3          -1.9260    -0.9200     0.0430 ca         1 9X9       0.082500
      3 C2           0.3750    -1.0950     0.0050 cp         1 9X9       0.236500
      4 C1           0.2470    -2.5180     0.0740 ca         1 9X9       0.666900
      5 C11          5.2980     2.7950     0.5420 c3         1 9X9       0.139700
      6 C9           3.9430     0.9960    -0.1650 ca         1 9X9       0.878300
      7 N9           3.8440    -0.0650    -0.9550 nb         1 9X9      -0.748000
      8 C10          2.7130    -0.7420    -0.8900 ca         1 9X9       0.482200
      9 N8           3.0160     1.4400     0.6670 nb         1 9X9      -0.748000
     10 C8           1.8900     0.7480     0.7220 ca         1 9X9       0.482200
     11 C5           1.6630    -0.3910    -0.0420 cp         1 9X9      -0.404100
     12 N2          -0.7150    -0.3730     0.0160 nb         1 9X9      -0.592000
     13 N3           1.3210    -3.3220     0.1320 nv         1 9X9      -0.949500
     14 N1          -0.9430    -3.0900     0.0730 nb         1 9X9      -0.845000
     15 N4          -3.2130    -2.9770     0.0110 nv         1 9X9      -0.944500
     16 C6          -3.0860    -0.0080     0.0500 c          1 9X9       0.623600
     17 N5          -2.7290     1.3090     0.0360 ns         1 9X9      -0.500400
     18 C7          -3.5520     2.4320     0.0510 c2         1 9X9       0.660800
     19 N7          -4.7840     2.3620     0.3610 n2         1 9X9      -0.823100
     20 N6          -2.8330     3.5700    -0.2280 nv         1 9X9      -0.973800
     21 H1           4.5690     3.5730     0.3160 h1         1 9X9       0.051033
     22 H2           5.2470     2.5610     1.6060 h1         1 9X9       0.051033
     23 H3           6.2940     3.1520     0.2990 h1         1 9X9       0.051033
     24 H4           2.6300    -1.5970    -1.5540 h4         1 9X9       0.035100
     25 H5           1.1300     1.1100     1.4070 h4         1 9X9       0.035100
     26 H6           2.2210    -2.9620     0.4010 hn         1 9X9       0.439300
     27 H7           1.1670    -4.3000     0.3170 hn         1 9X9       0.439300
     28 H8          -4.0770    -2.4630     0.0260 hn         1 9X9       0.465300
     29 H9          -3.2240    -3.9820     0.0430 hn         1 9X9       0.465300
     30 H10         -1.7300     1.4630     0.0020 hn         1 9X9       0.347500
     31 H11         -5.2100     3.2790     0.2790 hn         1 9X9       0.378400
     32 H12         -2.0660     3.4880    -0.8770 hn         1 9X9       0.403300
     33 H13         -3.3780     4.4040    -0.3790 hn         1 9X9       0.403300
     34 O2           5.0960     1.6370    -0.2610 os         1 9X9      -0.408100
     35 O1          -4.2380    -0.4130     0.0590 o          1 9X9      -0.580100
@<TRIPOS>BOND
     1     1     2 ar  
     2     1    14 ar  
     3     1    15 1   
     4     2    12 ar  
     5     2    16 1   
     6     3     4 ar  
     7     3    11 1   
     8     3    12 ar  
     9     4    13 1   
    10     4    14 ar  
    11     5    21 1   
    12     5    22 1   
    13     5    23 1   
    14     5    34 1   
    15     6     7 ar  
    16     6     9 ar  
    17     6    34 1   
    18     7     8 ar  
    19     8    11 ar  
    20     8    24 1   
    21     9    10 ar  
    22    10    11 ar  
    23    10    25 1   
    24    13    26 1   
    25    13    27 1   
    26    15    28 1   
    27    15    29 1   
    28    16    17 1   
    29    16    35 2   
    30    17    18 1   
    31    17    30 1   
    32    18    19 2   
    33    18    20 1   
    34    19    31 1   
    35    20    32 1   
    36    20    33 1   
@<TRIPOS>SUBSTRUCTURE
     1 9X9         1 TEMP              0 ****  ****    0 ROOT
