@<TRIPOS>MOLECULE
9X9
   35    36     1     0     0
SMALL
No Charge or Current Charge


@<TRIPOS>ATOM
      1 C4          -2.0020    -2.2580    -0.0800 ca         1 9X9       0.698900
      2 C3          -1.9030    -0.8280    -0.0270 ca         1 9X9       0.082500
      3 C2           0.4100    -1.0320    -0.0590 cp         1 9X9       0.236500
      4 C1           0.2200    -2.4760    -0.0880 ca         1 9X9       0.666900
      5 C11          5.6190     2.8040     0.6050 c3         1 9X9       0.162900
      6 C9           4.1520     0.9390    -0.0580 ca         1 9X9       0.352300
      7 N9           4.0600    -0.2240    -0.7350 nb         1 9X9      -0.222000
      8 C10          2.8710    -0.8550    -0.7340 ca         1 9X9       0.153900
      9 N8           3.1330     1.5210     0.6160 nb         1 9X9      -0.222000
     10 C8           1.9440     0.8900     0.6130 ca         1 9X9       0.153900
     11 C5           1.7420    -0.3420    -0.0530 cp         1 9X9      -0.273500
     12 N2          -0.6720    -0.2090    -0.0150 nb         1 9X9      -0.592000
     13 N3           1.1590    -3.4360    -0.0520 nv         1 9X9      -1.059900
     14 N1          -0.9620    -3.0910    -0.0930 nb         1 9X9      -0.845000
     15 N4          -3.1110    -3.0050    -0.1110 nv         1 9X9      -1.054900
     16 C6          -3.1550     0.0290     0.0360 c          1 9X9       0.556600
     17 N5          -2.9110     1.3810     0.0160 ns         1 9X9      -0.433400
     18 C7          -3.7940     2.4080     0.1130 c2         1 9X9       0.660800
     19 N7          -4.7930     2.4610     0.8730 n2         1 9X9      -0.823100
     20 N6          -3.2720     3.4740    -0.5040 nv         1 9X9      -1.084200
     21 H1           4.9660     3.5940     0.2110 h1         1 9X9       0.051033
     22 H2           5.4340     2.7020     1.6820 h1         1 9X9       0.051033
     23 H3           6.6590     3.1260     0.4690 h1         1 9X9       0.051033
     24 H4           2.8210    -1.7770    -1.3100 h4         1 9X9       0.035100
     25 H5           1.1420     1.3770     1.1650 h4         1 9X9       0.035100
     26 H6           2.0210    -3.2080     0.4290 hn         1 9X9       0.494500
     27 H7           0.7770    -4.3540     0.1410 hn         1 9X9       0.494500
     28 H8          -3.9720    -2.5460     0.1730 hn         1 9X9       0.520500
     29 H9          -2.9780    -3.9670     0.1720 hn         1 9X9       0.520500
     30 H10         -1.9380     1.6330    -0.0600 hn         1 9X9       0.347500
     31 H11         -5.1800     3.4100     0.8330 hn         1 9X9       0.378400
     32 H12         -2.7670     3.2460    -1.3540 hn         1 9X9       0.458500
     33 H13         -3.9050     4.2590    -0.6070 hn         1 9X9       0.458500
     34 O2           5.3870     1.5540    -0.0780 os         1 9X9      -0.431300
     35 O1          -4.2890    -0.4350     0.0970 o          1 9X9      -0.580100
@<TRIPOS>BOND
     1     1     2 ar  
     2     1    14 ar  
     3     1    15 1   
     4     2    12 ar  
     5     2    16 1   
     6     3     4 ar  
     7     3    11 1   
     8     3    12 ar  
     9     4    13 1   
    10     4    14 ar  
    11     5    21 1   
    12     5    22 1   
    13     5    23 1   
    14     5    34 1   
    15     6     7 ar  
    16     6     9 ar  
    17     6    34 1   
    18     7     8 ar  
    19     8    11 ar  
    20     8    24 1   
    21     9    10 ar  
    22    10    11 ar  
    23    10    25 1   
    24    13    26 1   
    25    13    27 1   
    26    15    28 1   
    27    15    29 1   
    28    16    17 1   
    29    16    35 2   
    30    17    18 1   
    31    17    30 1   
    32    18    19 2   
    33    18    20 1   
    34    19    31 1   
    35    20    32 1   
    36    20    33 1   
@<TRIPOS>SUBSTRUCTURE
     1 9X9         1 TEMP              0 ****  ****    0 ROOT
