@<TRIPOS>MOLECULE
9XA
   65    68     1     0     0
SMALL
No Charge or Current Charge


@<TRIPOS>ATOM
      1 C2          -0.9840     2.4650     0.7550 cc         1 9XA       0.001000
      2 C3           0.4080     2.2520     0.8940 cc         1 9XA      -0.234000
      3 C11          3.1860     1.7150     1.2120 c3         1 9XA       0.167600
      4 C12          4.5970     1.0710     1.3020 c3         1 9XA       0.178800
      5 C14         -4.3250     1.2070    -0.1140 ca         1 9XA       0.075200
      6 C15          5.3660     1.6040    -1.0260 c6         1 9XA       0.141800
      7 C16          5.9630     1.0170    -2.3490 c6         1 9XA       0.162800
      8 C18          7.0350    -0.7770    -1.0870 c6         1 9XA       0.162800
      9 C19          6.4490    -0.2020     0.2450 c6         1 9XA       0.141800
     10 C20         -5.5400     1.4360     0.5480 ca         1 9XA      -0.237000
     11 C21         -6.6850     0.7890     0.0830 ca         1 9XA       0.631900
     12 C23         -5.5690    -0.2490    -1.5960 ca         1 9XA       0.504000
     13 C24         -4.3540     0.3440    -1.2220 ca         1 9XA      -0.222000
     14 C27          8.3950     1.1700    -1.8370 c3         1 9XA       0.151100
     15 N1          -1.7880     1.4690     0.2960 na         1 9XA       0.114100
     16 C4           0.9020     0.9890     0.6360 cd         1 9XA       0.240100
     17 C5          -0.0060    -0.0990     0.3160 cd         1 9XA      -0.313500
     18 C6          -1.3840     0.1360     0.1770 cc         1 9XA       0.040000
     19 C7          -3.0950     1.8660     0.3220 cc         1 9XA      -0.160300
     20 C8          -3.0300     3.1860     0.7200 cd         1 9XA       0.019600
     21 N9          -1.7080     3.5470     0.9880 nd         1 9XA      -0.307600
     22 O10          2.2420     0.7200     0.7640 os         1 9XA      -0.316100
     23 N13          5.1770     0.5560     0.0270 n3         1 9XA      -0.721600
     24 N17          7.2480     0.2780    -2.1290 n3         1 9XA      -0.712600
     25 N22         -6.7330    -0.0360    -0.9490 nb         1 9XA      -0.745000
     26 Cl25        -5.6360    -1.3300    -2.9790 cl         1 9XA      -0.168000
     27 N26         -7.8860     0.9220     0.6440 nv         1 9XA      -1.066900
     28 S28          0.5390    -1.7810     0.0200 sy         1 9XA       1.029500
     29 O29         -0.5390    -2.4790    -0.6960 o          1 9XA      -0.510000
     30 O30          1.8960    -1.7660    -0.5430 o          1 9XA      -0.510000
     31 C31          0.6510    -2.5730     1.6970 c3         1 9XA      -0.212000
     32 C32          1.0810    -4.0580     1.5210 c3         1 9XA      -0.083100
     33 C33          1.6990    -1.8420     2.5840 c3         1 9XA      -0.083100
     34 C34         -0.7360    -2.5200     2.4010 c3         1 9XA      -0.083100
     35 H1           1.0240     3.0860     1.2080 ha         1 9XA       0.150000
     36 H2           2.9100     2.0800     2.2100 h1         1 9XA       0.044700
     37 H3           3.2100     2.5720     0.5290 h1         1 9XA       0.044700
     38 H4           5.2770     1.8170     1.7360 h1         1 9XA       0.043700
     39 H5           4.5320     0.2500     2.0290 h1         1 9XA       0.043700
     40 H6           6.0290     2.3990    -0.6540 h1         1 9XA       0.030950
     41 H7           4.4060     2.0780    -1.2710 h1         1 9XA       0.030950
     42 H8           5.2160     0.3380    -2.7850 h1         1 9XA       0.063200
     43 H9           6.1030     1.8330    -3.0730 h1         1 9XA       0.063200
     44 H10          7.9770    -1.3020    -0.8680 h1         1 9XA       0.063200
     45 H11          6.3350    -1.5360    -1.4660 h1         1 9XA       0.063200
     46 H12          6.2740    -1.0380     0.9370 h1         1 9XA       0.030950
     47 H13          7.2000     0.4490     0.7160 h1         1 9XA       0.030950
     48 H14         -5.5940     2.0930     1.4100 ha         1 9XA       0.128000
     49 H15         -3.4610     0.1460    -1.8070 ha         1 9XA       0.146000
     50 H16          9.3190     0.5860    -1.7340 h1         1 9XA       0.027700
     51 H17          8.5400     1.8900    -2.6530 h1         1 9XA       0.027700
     52 H18          8.2420     1.7340    -0.9070 h1         1 9XA       0.027700
     53 H19         -2.1420    -0.6060    -0.0340 h4         1 9XA       0.183000
     54 H20         -3.8470     3.8960     0.8220 h4         1 9XA       0.231000
     55 H23         -7.9140     1.2150     1.6140 hn         1 9XA       0.486500
     56 H24         -8.5670     0.2260     0.3640 hn         1 9XA       0.486500
     57 H25          2.0620    -4.1310     1.0340 hc         1 9XA       0.052589
     58 H26          1.1520    -4.5630     2.4920 hc         1 9XA       0.052589
     59 H27          0.3580    -4.6110     0.9090 hc         1 9XA       0.052589
     60 H28          1.3910    -0.8120     2.8000 hc         1 9XA       0.052589
     61 H29          1.8200    -2.3540     3.5470 hc         1 9XA       0.052589
     62 H30          2.6830    -1.8110     2.0990 hc         1 9XA       0.052589
     63 H31         -1.5060    -3.0270     1.8060 hc         1 9XA       0.052589
     64 H32         -0.6950    -3.0140     3.3800 hc         1 9XA       0.052589
     65 H33         -1.0610    -1.4860     2.5670 hc         1 9XA       0.052589
@<TRIPOS>BOND
     1     1     2 1   
     2     1    15 1   
     3     1    21 2   
     4     2    16 2   
     5     2    35 1   
     6     3     4 1   
     7     3    22 1   
     8     3    36 1   
     9     3    37 1   
    10     4    23 1   
    11     4    38 1   
    12     4    39 1   
    13     5    10 ar  
    14     5    13 ar  
    15     5    19 1   
    16     6     7 1   
    17     6    23 1   
    18     6    40 1   
    19     6    41 1   
    20     7    24 1   
    21     7    42 1   
    22     7    43 1   
    23     8     9 1   
    24     8    24 1   
    25     8    44 1   
    26     8    45 1   
    27     9    23 1   
    28     9    46 1   
    29     9    47 1   
    30    10    11 ar  
    31    10    48 1   
    32    11    25 ar  
    33    11    27 1   
    34    12    13 ar  
    35    12    25 ar  
    36    12    26 1   
    37    13    49 1   
    38    14    24 1   
    39    14    50 1   
    40    14    51 1   
    41    14    52 1   
    42    15    18 1   
    43    15    19 1   
    44    16    17 1   
    45    16    22 1   
    46    17    18 2   
    47    17    28 1   
    48    18    53 1   
    49    19    20 2   
    50    20    21 1   
    51    20    54 1   
    52    27    55 1   
    53    27    56 1   
    54    28    29 2   
    55    28    30 2   
    56    28    31 1   
    57    31    32 1   
    58    31    33 1   
    59    31    34 1   
    60    32    57 1   
    61    32    58 1   
    62    32    59 1   
    63    33    60 1   
    64    33    61 1   
    65    33    62 1   
    66    34    63 1   
    67    34    64 1   
    68    34    65 1   
@<TRIPOS>SUBSTRUCTURE
     1 9XA         1 TEMP              0 ****  ****    0 ROOT
