@<TRIPOS>MOLECULE
9XA
   65    68     1     0     0
SMALL
bcc


@<TRIPOS>ATOM
      1 C2          -0.9660     2.5040     0.7560 cc         1 9XA       0.051700
      2 C3           0.4140     2.3280     0.9610 cc         1 9XA      -0.252000
      3 C11          3.1670     1.8260     1.3400 c3         1 9XA       0.144400
      4 C12          4.5460     1.2060     1.3510 c3         1 9XA       0.178800
      5 C14         -4.1750     1.0780    -0.2020 ca         1 9XA       0.075200
      6 C15          5.6510     1.9530    -0.6550 c6         1 9XA       0.141800
      7 C16          5.9550     1.5730    -2.1000 c6         1 9XA       0.162800
      8 C18          6.0540    -0.7200    -1.4960 c6         1 9XA       0.162800
      9 C19          5.7580    -0.3680    -0.0430 c6         1 9XA       0.141800
     10 C20         -5.4110     1.2740     0.3900 ca         1 9XA      -0.320300
     11 C21         -6.5160     0.5430    -0.0760 ca         1 9XA       0.697200
     12 C23         -5.2170    -0.5210    -1.5960 ca         1 9XA       0.569300
     13 C24         -4.0640     0.1470    -1.2470 ca         1 9XA      -0.305300
     14 C27          8.1170     0.4950    -1.8960 c3         1 9XA       0.151100
     15 N1          -1.7340     1.4210     0.3540 na         1 9XA       0.012700
     16 C4           0.9770     1.0910     0.7830 cd         1 9XA       0.240100
     17 C5           0.1260    -0.0090     0.4250 cd         1 9XA      -0.313500
     18 C6          -1.2040     0.1870     0.2200 cc         1 9XA       0.072700
     19 C7          -3.0420     1.8730     0.2390 cc         1 9XA      -0.160300
     20 C8          -2.9690     3.1980     0.5840 cd         1 9XA       0.069600
     21 N9          -1.7080     3.5840     0.8910 nd         1 9XA      -0.307600
     22 O10          2.2600     0.8110     0.9270 os         1 9XA      -0.292900
     23 N13          4.9840     0.8560     0.0190 n3         1 9XA      -0.721600
     24 N17          6.7160     0.3430    -2.2330 n3         1 9XA      -0.712600
     25 N22         -6.4000    -0.3590    -1.0560 nb         1 9XA      -0.745000
     26 CL25        -5.1310    -1.6920    -2.8810 cl         1 9XA      -0.168000
     27 N26         -7.7510     0.7380     0.4360 nv         1 9XA      -0.956500
     28 S28          0.7140    -1.6770     0.1710 sy         1 9XA       1.060300
     29 O29         -0.3520    -2.3550    -0.5720 o          1 9XA      -0.580800
     30 O30          2.0420    -1.6390    -0.4280 o          1 9XA      -0.580800
     31 C31          0.8090    -2.4710     1.8210 c3         1 9XA      -0.101200
     32 C32          1.3080    -3.8900     1.5410 c3         1 9XA      -0.083100
     33 C33          1.7880    -1.7240     2.7150 c3         1 9XA      -0.083100
     34 C34         -0.5860    -2.4940     2.4330 c3         1 9XA      -0.083100
     35 H1           0.9890     3.1940     1.2530 ha         1 9XA       0.168000
     36 H2           2.8990     2.1870     2.3380 h1         1 9XA       0.044700
     37 H3           3.1220     2.6760     0.6510 h1         1 9XA       0.044700
     38 H4           5.2320     1.9040     1.8520 h1         1 9XA       0.043700
     39 H5           4.5200     0.3080     1.9740 h1         1 9XA       0.043700
     40 H6           6.5750     2.2530    -0.1310 h1         1 9XA       0.030950
     41 H7           4.9990     2.8310    -0.6560 h1         1 9XA       0.030950
     42 H8           5.0060     1.4490    -2.6330 h1         1 9XA       0.063200
     43 H9           6.4970     2.3850    -2.5900 h1         1 9XA       0.063200
     44 H10          6.6640    -1.6260    -1.5410 h1         1 9XA       0.063200
     45 H11          5.1040    -0.9420    -1.9920 h1         1 9XA       0.063200
     46 H12          5.1700    -1.1750     0.4010 h1         1 9XA       0.030950
     47 H13          6.6960    -0.3040     0.5350 h1         1 9XA       0.030950
     48 H14         -5.5260     1.9660     1.2140 ha         1 9XA       0.146000
     49 H15         -3.1450    -0.0080    -1.7930 ha         1 9XA       0.164000
     50 H16          8.6410    -0.4450    -2.0820 h1         1 9XA       0.027700
     51 H17          8.5640     1.2540    -2.5400 h1         1 9XA       0.027700
     52 H18          8.3210     0.7870    -0.8580 h1         1 9XA       0.027700
     53 H19         -1.8760    -0.6160    -0.0370 h4         1 9XA       0.201000
     54 H20         -3.7910     3.8970     0.5900 h4         1 9XA       0.181000
     55 H23         -7.8480     1.2310     1.3070 hn         1 9XA       0.431300
     56 H24         -8.4620     0.0550     0.2350 hn         1 9XA       0.431300
     57 H25          2.3120    -3.8920     1.1190 hc         1 9XA       0.052589
     58 H26          1.3460    -4.4290     2.4880 hc         1 9XA       0.052589
     59 H27          0.6420    -4.4380     0.8760 hc         1 9XA       0.052589
     60 H28          1.4270    -0.7320     2.9860 hc         1 9XA       0.052589
     61 H29          1.8970    -2.2910     3.6400 hc         1 9XA       0.052589
     62 H30          2.7740    -1.6330     2.2640 hc         1 9XA       0.052589
     63 H31         -1.3050    -3.0180     1.8060 hc         1 9XA       0.052589
     64 H32         -0.5310    -3.0210     3.3870 hc         1 9XA       0.052589
     65 H33         -0.9620    -1.4920     2.6410 hc         1 9XA       0.052589
@<TRIPOS>BOND
     1     1     2 1   
     2     1    15 1   
     3     1    21 2   
     4     2    16 2   
     5     2    35 1   
     6     3     4 1   
     7     3    22 1   
     8     3    36 1   
     9     3    37 1   
    10     4    23 1   
    11     4    38 1   
    12     4    39 1   
    13     5    10 ar  
    14     5    13 ar  
    15     5    19 1   
    16     6     7 1   
    17     6    23 1   
    18     6    40 1   
    19     6    41 1   
    20     7    24 1   
    21     7    42 1   
    22     7    43 1   
    23     8     9 1   
    24     8    24 1   
    25     8    44 1   
    26     8    45 1   
    27     9    23 1   
    28     9    46 1   
    29     9    47 1   
    30    10    11 ar  
    31    10    48 1   
    32    11    25 ar  
    33    11    27 1   
    34    12    13 ar  
    35    12    25 ar  
    36    12    26 1   
    37    13    49 1   
    38    14    24 1   
    39    14    50 1   
    40    14    51 1   
    41    14    52 1   
    42    15    18 1   
    43    15    19 1   
    44    16    17 1   
    45    16    22 1   
    46    17    18 2   
    47    17    28 1   
    48    18    53 1   
    49    19    20 2   
    50    20    21 1   
    51    20    54 1   
    52    27    55 1   
    53    27    56 1   
    54    28    29 2   
    55    28    30 2   
    56    28    31 1   
    57    31    32 1   
    58    31    33 1   
    59    31    34 1   
    60    32    57 1   
    61    32    58 1   
    62    32    59 1   
    63    33    60 1   
    64    33    61 1   
    65    33    62 1   
    66    34    63 1   
    67    34    64 1   
    68    34    65 1   
@<TRIPOS>SUBSTRUCTURE
     1 9XA         1 TEMP              0 ****  ****    0 ROOT
