@<TRIPOS>MOLECULE
9XB
  104   107     1     0     0
SMALL
No Charge or Current Charge


@<TRIPOS>ATOM
      1 C13         -5.5530     1.0590     0.5510 c5         1 9XB      -0.112400
      2 C15         -2.5510     4.5910     0.9260 c3         1 9XB      -0.083100
      3 C20          0.1620     1.2820     3.1790 c3         1 9XB      -0.115700
      4 C21         -1.0180     1.4030     4.1750 c3         1 9XB      -0.086100
      5 C22          1.1210     0.1070     3.5030 c5         1 9XB       0.177300
      6 C24          2.7900    -1.2990     2.8020 c5         1 9XB       0.167300
      7 C26          0.4910    -1.3010     3.6640 c5         1 9XB      -0.111400
      8 C28          2.7130    -2.1220     0.3060 c3         1 9XB       0.187300
      9 C02         -0.9180    -4.2170     1.0160 c3         1 9XB      -0.088100
     10 C03         -2.7520    -2.6540     0.0970 c3         1 9XB      -0.056400
     11 C04         -3.2890    -1.8330    -1.1160 c3         1 9XB       0.185500
     12 C08         -4.5650    -1.0110    -0.7470 c3         1 9XB      -0.097400
     13 C09         -4.3340     0.1310     0.2680 c5         1 9XB       0.165300
     14 C11         -3.3850     2.1750     0.6320 c5         1 9XB       0.159300
     15 C12         -4.9080     2.4810     0.6720 c5         1 9XB      -0.108400
     16 C14         -2.4510     3.2880     0.0860 c3         1 9XB      -0.062700
     17 C16         -0.9730     2.7840    -0.0870 c3         1 9XB       0.185300
     18 C18         -0.3690     1.2780     1.7360 c          1 9XB       0.614100
     19 C25          1.7150    -2.2390     3.4340 c5         1 9XB      -0.113400
     20 C27          3.5550    -1.8850     1.5930 c3         1 9XB      -0.075400
     21 C30          2.3060    -0.8510    -1.7390 c          1 9XB       0.618100
     22 C32          2.8790     0.2860    -2.5970 c3         1 9XB      -0.122700
     23 C33          4.2920    -0.0650    -3.1280 c3         1 9XB      -0.084100
     24 C34          2.8360     1.5960    -1.7850 c5         1 9XB       0.179300
     25 C36          1.4680     3.1650    -0.7990 c5         1 9XB       0.175300
     26 C37          2.6060     3.9570    -1.5330 c5         1 9XB      -0.108400
     27 C38          3.1770     2.9050    -2.5330 c5         1 9XB      -0.112400
     28 C39          0.0140     3.7300    -0.8510 c3         1 9XB      -0.070700
     29 C40         -0.4770     3.9970    -2.3040 c3         1 9XB      -0.091100
     30 C43          4.6530    -5.0790    -1.5400 c3         1 9XB      -0.091100
     31 N05         -3.4620    -2.6720    -2.3470 n3         1 9XB      -0.721600
     32 O10         -3.3450     1.0350    -0.2320 os         1 9XB      -0.437000
     33 O17         -0.4180     2.5570     1.2300 os         1 9XB      -0.466100
     34 O19         -0.7570     0.2800     1.1470 o          1 9XB      -0.451000
     35 O23          2.0720    -0.1030     2.4500 os         1 9XB      -0.437000
     36 O29          3.0710    -1.0760    -0.6200 os         1 9XB      -0.443100
     37 O31          1.2920    -1.4720    -2.0300 o          1 9XB      -0.482000
     38 O35          1.4880     1.8570    -1.3970 os         1 9XB      -0.454000
     39 H132        -6.2910     1.0270    -0.2580 hc         1 9XB       0.048700
     40 H131        -6.0710     0.7610     1.4700 hc         1 9XB       0.048700
     41 H151        -1.9630     5.4000     0.4780 hc         1 9XB       0.035367
     42 H152        -3.5880     4.9400     0.9830 hc         1 9XB       0.035367
     43 H153        -2.1930     4.4290     1.9490 hc         1 9XB       0.035367
     44 H201         0.7170     2.2200     3.2970 hc         1 9XB       0.082700
     45 H213        -0.6520     1.4510     5.2080 hc         1 9XB       0.042700
     46 H211        -1.5980     2.3120     3.9770 hc         1 9XB       0.042700
     47 H212        -1.6960     0.5440     4.0890 hc         1 9XB       0.042700
     48 H221         1.6750     0.3690     4.4160 h1         1 9XB       0.028700
     49 H241         3.5290    -1.0280     3.5700 h1         1 9XB       0.033700
     50 H262         0.0390    -1.4420     4.6530 hc         1 9XB       0.064700
     51 H261        -0.2930    -1.4880     2.9240 hc         1 9XB       0.064700
     52 H281         1.6450    -2.0660     0.5630 h1         1 9XB       0.084700
     53 H011        -0.6500    -2.6350    -0.4330 hc         1 9XB       0.057200
     54 H012        -1.5170    -4.0400    -1.0480 hc         1 9XB       0.057200
     55 H021        -1.6210    -5.0290     1.2370 hc         1 9XB       0.023033
     56 H023         0.0600    -4.6600     0.7940 hc         1 9XB       0.023033
     57 H022        -0.8190    -3.5950     1.9120 hc         1 9XB       0.023033
     58 H031        -3.5050    -3.3820     0.4200 hc         1 9XB       0.028700
     59 H032        -2.5930    -1.9830     0.9480 hc         1 9XB       0.028700
     60 H041        -2.5030    -1.0950    -1.3340 h1         1 9XB       0.095700
     61 H062        -5.5070    -3.2770    -2.1710 h1         1 9XB       0.026033
     62 H063        -4.4940    -4.3490    -3.1620 h1         1 9XB       0.026033
     63 H061        -4.3410    -4.3810    -1.4000 h1         1 9XB       0.026033
     64 H073        -4.4970    -1.3550    -3.6810 h1         1 9XB       0.026033
     65 H072        -2.7270    -1.1610    -3.6610 h1         1 9XB       0.026033
     66 H071        -3.4600    -2.5580    -4.4730 h1         1 9XB       0.026033
     67 H082        -4.9910    -0.5730    -1.6560 hc         1 9XB       0.044700
     68 H081        -5.3290    -1.6910    -0.3530 hc         1 9XB       0.044700
     69 H091        -3.9640    -0.2910     1.2130 h1         1 9XB       0.035700
     70 H111        -3.0370     1.8710     1.6290 h1         1 9XB       0.033700
     71 H121        -5.2090     3.1210    -0.1660 hc         1 9XB       0.048700
     72 H122        -5.2000     2.9950     1.5950 hc         1 9XB       0.048700
     73 H141        -2.8310     3.5320    -0.9110 hc         1 9XB       0.062700
     74 H161        -1.0010     1.8510    -0.6690 h1         1 9XB       0.102700
     75 H252         1.4580    -3.0830     2.7850 hc         1 9XB       0.050200
     76 H251         2.0800    -2.6660     4.3750 hc         1 9XB       0.050200
     77 H271         4.4070    -1.2360     1.3560 hc         1 9XB       0.058700
     78 H272         4.0000    -2.8340     1.9150 hc         1 9XB       0.058700
     79 H321         2.2170     0.3920    -3.4640 hc         1 9XB       0.078700
     80 H333         4.2740    -1.0190    -3.6680 hc         1 9XB       0.042367
     81 H331         4.6520     0.7070    -3.8180 hc         1 9XB       0.042367
     82 H332         5.0120    -0.1500    -2.3040 hc         1 9XB       0.042367
     83 H341         3.4540     1.4870    -0.8810 h1         1 9XB       0.057700
     84 H361         1.7600     3.0530     0.2540 h1         1 9XB       0.062700
     85 H371         2.2670     4.8700    -2.0320 hc         1 9XB       0.052200
     86 H372         3.3710     4.2680    -0.8120 hc         1 9XB       0.052200
     87 H381         4.2510     3.0290    -2.7080 hc         1 9XB       0.054200
     88 H382         2.6700     2.9540    -3.5040 hc         1 9XB       0.054200
     89 H391         0.0330     4.6960    -0.3330 hc         1 9XB       0.052700
     90 H401        -1.4310     4.5360    -2.3090 hc         1 9XB       0.037700
     91 H402         0.2290     4.6150    -2.8670 hc         1 9XB       0.037700
     92 H403        -0.6110     3.0560    -2.8500 hc         1 9XB       0.037700
     93 H421         4.6130    -2.9290    -1.7000 hc         1 9XB       0.038200
     94 H422         5.1680    -3.5210    -0.1360 hc         1 9XB       0.038200
     95 H432         5.6740    -5.1620    -1.9340 hc         1 9XB       0.031033
     96 H431         4.5130    -5.8620    -0.7860 hc         1 9XB       0.031033
     97 H433         3.9520    -5.2600    -2.3640 hc         1 9XB       0.031033
     98 C41          2.9970    -3.5050    -0.3550 c3         1 9XB      -0.109400
     99 C06         -4.5060    -3.7220    -2.2610 c3         1 9XB       0.158600
    100 C01         -1.4130    -3.3800    -0.1790 c3         1 9XB      -0.078400
    101 C07         -3.5440    -1.8930    -3.6040 c3         1 9XB       0.158600
    102 C42          4.4260    -3.6840    -0.9270 c3         1 9XB      -0.071400
    103 H412         2.8120    -4.2870     0.3910 hc         1 9XB       0.056200
    104 H411         2.2670    -3.6860    -1.1520 hc         1 9XB       0.056200
@<TRIPOS>BOND
     1     1    13 1   
     2     1    15 1   
     3     1    39 1   
     4     1    40 1   
     5     2    16 1   
     6     2    41 1   
     7     2    42 1   
     8     2    43 1   
     9     3     4 1   
    10     3     5 1   
    11     3    18 1   
    12     3    44 1   
    13     4    45 1   
    14     4    46 1   
    15     4    47 1   
    16     5     7 1   
    17     5    35 1   
    18     5    48 1   
    19     6    19 1   
    20     6    20 1   
    21     6    35 1   
    22     6    49 1   
    23     7    19 1   
    24     7    50 1   
    25     7    51 1   
    26     8    20 1   
    27     8    36 1   
    28     8    52 1   
    29     8    98 1   
    30     9    55 1   
    31     9    56 1   
    32     9    57 1   
    33     9   100 1   
    34    10    11 1   
    35    10    58 1   
    36    10    59 1   
    37    10   100 1   
    38    11    12 1   
    39    11    31 1   
    40    11    60 1   
    41    12    13 1   
    42    12    67 1   
    43    12    68 1   
    44    13    32 1   
    45    13    69 1   
    46    14    15 1   
    47    14    16 1   
    48    14    32 1   
    49    14    70 1   
    50    15    71 1   
    51    15    72 1   
    52    16    17 1   
    53    16    73 1   
    54    17    28 1   
    55    17    33 1   
    56    17    74 1   
    57    18    33 1   
    58    18    34 2   
    59    19    75 1   
    60    19    76 1   
    61    20    77 1   
    62    20    78 1   
    63    21    22 1   
    64    21    36 1   
    65    21    37 2   
    66    22    23 1   
    67    22    24 1   
    68    22    79 1   
    69    23    80 1   
    70    23    81 1   
    71    23    82 1   
    72    24    27 1   
    73    24    38 1   
    74    24    83 1   
    75    25    26 1   
    76    25    28 1   
    77    25    38 1   
    78    25    84 1   
    79    26    27 1   
    80    26    85 1   
    81    26    86 1   
    82    27    87 1   
    83    27    88 1   
    84    28    29 1   
    85    28    89 1   
    86    29    90 1   
    87    29    91 1   
    88    29    92 1   
    89    30    95 1   
    90    30    96 1   
    91    30    97 1   
    92    30   102 1   
    93    31    99 1   
    94    31   101 1   
    95    53   100 1   
    96    54   100 1   
    97    61    99 1   
    98    62    99 1   
    99    63    99 1   
   100    64   101 1   
   101    65   101 1   
   102    66   101 1   
   103    93   102 1   
   104    94   102 1   
   105    98   102 1   
   106    98   103 1   
   107    98   104 1   
@<TRIPOS>SUBSTRUCTURE
     1 9XB         1 TEMP              0 ****  ****    0 ROOT
