@<TRIPOS>MOLECULE
9XB
  104   107     1     0     0
SMALL
abcg2


@<TRIPOS>ATOM
      1 C13         -5.3740     0.9400     0.3780 c5         1 9XB      -0.112400
      2 C15         -2.5300     4.4440     0.8880 c3         1 9XB      -0.083100
      3 C20          0.3510     1.3300     3.0920 c3         1 9XB      -0.115700
      4 C21         -0.8310     1.4800     4.0550 c3         1 9XB      -0.086100
      5 C22          1.2070     0.1340     3.4830 c5         1 9XB       0.177300
      6 C24          2.8300    -1.3070     2.7780 c5         1 9XB       0.167300
      7 C26          0.5370    -1.2360     3.5920 c5         1 9XB      -0.111400
      8 C28          2.4700    -2.0070     0.3270 c3         1 9XB       0.187300
      9 C02         -1.0730    -4.4120     1.3160 c3         1 9XB      -0.088100
     10 C03         -2.7050    -2.8390     0.1810 c3         1 9XB      -0.056400
     11 C04         -2.9780    -1.9050    -0.9960 c3         1 9XB       0.185500
     12 C08         -4.2690    -1.0880    -0.7910 c3         1 9XB      -0.097400
     13 C09         -4.1340     0.0430     0.2070 c5         1 9XB       0.165300
     14 C11         -3.2610     2.0790     0.5750 c5         1 9XB       0.159300
     15 C12         -4.7750     2.3450     0.5820 c5         1 9XB      -0.108400
     16 C14         -2.3750     3.1910     0.0300 c3         1 9XB      -0.062700
     17 C16         -0.9200     2.7110    -0.0990 c3         1 9XB       0.185300
     18 C18         -0.1640     1.2680     1.6680 c          1 9XB       0.614100
     19 C25          1.7180    -2.1900     3.3890 c5         1 9XB      -0.113400
     20 C27          3.4430    -1.8570     1.5030 c3         1 9XB      -0.075400
     21 C30          1.9290    -0.6450    -1.5680 c          1 9XB       0.618100
     22 C32          2.4540     0.4760    -2.4440 c3         1 9XB      -0.122700
     23 C33          3.6670     0.0120    -3.2500 c3         1 9XB      -0.084100
     24 C34          2.7790     1.7220    -1.6310 c5         1 9XB       0.179300
     25 C36          1.4800     3.3610    -0.5740 c5         1 9XB       0.175300
     26 C37          2.5030     4.0740    -1.4730 c5         1 9XB      -0.108400
     27 C38          2.9370     2.9930    -2.4600 c5         1 9XB      -0.112400
     28 C39          0.0050     3.6770    -0.8620 c3         1 9XB      -0.070700
     29 C40         -0.3350     3.6030    -2.3490 c3         1 9XB      -0.091100
     30 C43          4.0310    -5.0380    -1.5920 c3         1 9XB      -0.091100
     31 N05         -2.9530    -2.6270    -2.2680 n3         1 9XB      -0.721600
     32 O10         -3.1260     0.9290    -0.2190 os         1 9XB      -0.437000
     33 O17         -0.3980     2.5090     1.2220 os         1 9XB      -0.466100
     34 O19         -0.3920     0.2670     1.0510 o          1 9XB      -0.451000
     35 O23          2.2450    -0.0420     2.5450 os         1 9XB      -0.437000
     36 O29          2.7720    -0.9360    -0.5880 os         1 9XB      -0.443100
     37 O31          0.8980    -1.2300    -1.7820 o          1 9XB      -0.482000
     38 O35          1.7020     1.9750    -0.7590 os         1 9XB      -0.454000
     39 H132        -6.0020     0.9050    -0.5150 hc         1 9XB       0.048700
     40 H131        -5.9890     0.6150     1.2170 hc         1 9XB       0.048700
     41 H151        -1.9230     5.2700     0.5200 hc         1 9XB       0.035367
     42 H152        -3.5650     4.7890     0.8850 hc         1 9XB       0.035367
     43 H153        -2.2490     4.2590     1.9260 hc         1 9XB       0.035367
     44 H201         0.9730     2.2260     3.1830 hc         1 9XB       0.082700
     45 H213        -0.4760     1.5170     5.0860 hc         1 9XB       0.042700
     46 H211        -1.3840     2.4000     3.8660 hc         1 9XB       0.042700
     47 H212        -1.5250     0.6440     3.9660 hc         1 9XB       0.042700
     48 H221         1.6380     0.3750     4.4710 h1         1 9XB       0.028700
     49 H241         3.6380    -1.2020     3.5180 h1         1 9XB       0.033700
     50 H262         0.0480    -1.3730     4.5560 hc         1 9XB       0.064700
     51 H261        -0.2070    -1.3690     2.8090 hc         1 9XB       0.064700
     52 H281         1.4400    -1.8760     0.6700 h1         1 9XB       0.084700
     53 H011        -0.5780    -2.8180    -0.0470 hc         1 9XB       0.057200
     54 H012        -1.3510    -4.1880    -0.8070 hc         1 9XB       0.057200
     55 H021        -1.8250    -5.1910     1.4540 hc         1 9XB       0.023033
     56 H023        -0.1010    -4.9020     1.2400 hc         1 9XB       0.023033
     57 H022        -1.0590    -3.8050     2.2240 hc         1 9XB       0.023033
     58 H031        -3.5180    -3.5680     0.2940 hc         1 9XB       0.028700
     59 H032        -2.7140    -2.2400     1.0970 hc         1 9XB       0.028700
     60 H041        -2.1370    -1.2060    -1.0370 h1         1 9XB       0.095700
     61 H062        -5.0430    -2.9100    -2.6730 h1         1 9XB       0.026033
     62 H063        -3.9360    -4.0710    -3.4030 h1         1 9XB       0.026033
     63 H061        -4.2680    -4.1500    -1.6810 h1         1 9XB       0.026033
     64 H073        -3.4480    -1.0090    -3.5890 h1         1 9XB       0.026033
     65 H072        -1.7300    -1.2360    -3.2230 h1         1 9XB       0.026033
     66 H071        -2.5630    -2.3600    -4.2990 h1         1 9XB       0.026033
     67 H082        -4.5930    -0.6590    -1.7460 hc         1 9XB       0.044700
     68 H081        -5.0820    -1.7400    -0.4560 hc         1 9XB       0.044700
     69 H091        -3.8580    -0.3640     1.1930 h1         1 9XB       0.035700
     70 H111        -2.9540     1.8550     1.6120 h1         1 9XB       0.033700
     71 H121        -5.0500     3.0140    -0.2370 hc         1 9XB       0.048700
     72 H122        -5.1030     2.8140     1.5090 hc         1 9XB       0.048700
     73 H141        -2.7310     3.4200    -0.9820 hc         1 9XB       0.062700
     74 H161        -0.9100     1.7570    -0.6270 h1         1 9XB       0.102700
     75 H252         1.4510    -3.0280     2.7410 hc         1 9XB       0.050200
     76 H251         2.0570    -2.6210     4.3320 hc         1 9XB       0.050200
     77 H271         4.2930    -1.2410     1.1980 hc         1 9XB       0.058700
     78 H272         3.8680    -2.8310     1.7610 hc         1 9XB       0.058700
     79 H321         1.6420     0.7180    -3.1370 hc         1 9XB       0.078700
     80 H333         3.4570    -0.9080    -3.7960 hc         1 9XB       0.042367
     81 H331         3.9440     0.7690    -3.9840 hc         1 9XB       0.042367
     82 H332         4.5320    -0.1640    -2.6100 hc         1 9XB       0.042367
     83 H341         3.6970     1.5440    -1.0510 h1         1 9XB       0.057700
     84 H361         1.6830     3.6180     0.4710 h1         1 9XB       0.062700
     85 H371         2.0990     4.9620    -1.9590 hc         1 9XB       0.052200
     86 H372         3.3560     4.4000    -0.8750 hc         1 9XB       0.052200
     87 H381         3.9560     3.1330    -2.8200 hc         1 9XB       0.054200
     88 H382         2.2760     2.9670    -3.3310 hc         1 9XB       0.054200
     89 H391        -0.1530     4.7060    -0.5180 hc         1 9XB       0.052700
     90 H401        -1.3770     3.8610    -2.5350 hc         1 9XB       0.037700
     91 H402         0.2680     4.2950    -2.9370 hc         1 9XB       0.037700
     92 H403        -0.1720     2.5970    -2.7390 hc         1 9XB       0.037700
     93 H421         4.1090    -2.9040    -1.8190 hc         1 9XB       0.038200
     94 H422         4.7550    -3.4830    -0.3000 hc         1 9XB       0.038200
     95 H432         4.9950    -5.2140    -2.0700 hc         1 9XB       0.031033
     96 H431         3.9060    -5.7900    -0.8110 hc         1 9XB       0.031033
     97 H433         3.2550    -5.2100    -2.3410 hc         1 9XB       0.031033
     98 C41          2.5980    -3.3680    -0.3510 c3         1 9XB      -0.109400
     99 C06         -4.1050    -3.4620    -2.5120 c3         1 9XB       0.158600
    100 C01         -1.3670    -3.5620     0.0880 c3         1 9XB      -0.078400
    101 C07         -2.6700    -1.7640    -3.3900 c3         1 9XB       0.158600
    102 C42          3.9440    -3.6300    -1.0190 c3         1 9XB      -0.071400
    103 H412         2.4280    -4.1240     0.4240 hc         1 9XB       0.056200
    104 H411         1.7940    -3.4990    -1.0790 hc         1 9XB       0.056200
@<TRIPOS>BOND
     1     1    13 1   
     2     1    15 1   
     3     1    39 1   
     4     1    40 1   
     5     2    16 1   
     6     2    41 1   
     7     2    42 1   
     8     2    43 1   
     9     3     4 1   
    10     3     5 1   
    11     3    18 1   
    12     3    44 1   
    13     4    45 1   
    14     4    46 1   
    15     4    47 1   
    16     5     7 1   
    17     5    35 1   
    18     5    48 1   
    19     6    19 1   
    20     6    20 1   
    21     6    35 1   
    22     6    49 1   
    23     7    19 1   
    24     7    50 1   
    25     7    51 1   
    26     8    20 1   
    27     8    36 1   
    28     8    52 1   
    29     8    98 1   
    30     9    55 1   
    31     9    56 1   
    32     9    57 1   
    33     9   100 1   
    34    10    11 1   
    35    10    58 1   
    36    10    59 1   
    37    10   100 1   
    38    11    12 1   
    39    11    31 1   
    40    11    60 1   
    41    12    13 1   
    42    12    67 1   
    43    12    68 1   
    44    13    32 1   
    45    13    69 1   
    46    14    15 1   
    47    14    16 1   
    48    14    32 1   
    49    14    70 1   
    50    15    71 1   
    51    15    72 1   
    52    16    17 1   
    53    16    73 1   
    54    17    28 1   
    55    17    33 1   
    56    17    74 1   
    57    18    33 1   
    58    18    34 2   
    59    19    75 1   
    60    19    76 1   
    61    20    77 1   
    62    20    78 1   
    63    21    22 1   
    64    21    36 1   
    65    21    37 2   
    66    22    23 1   
    67    22    24 1   
    68    22    79 1   
    69    23    80 1   
    70    23    81 1   
    71    23    82 1   
    72    24    27 1   
    73    24    38 1   
    74    24    83 1   
    75    25    26 1   
    76    25    28 1   
    77    25    38 1   
    78    25    84 1   
    79    26    27 1   
    80    26    85 1   
    81    26    86 1   
    82    27    87 1   
    83    27    88 1   
    84    28    29 1   
    85    28    89 1   
    86    29    90 1   
    87    29    91 1   
    88    29    92 1   
    89    30    95 1   
    90    30    96 1   
    91    30    97 1   
    92    30   102 1   
    93    31    99 1   
    94    31   101 1   
    95    53   100 1   
    96    54   100 1   
    97    61    99 1   
    98    62    99 1   
    99    63    99 1   
   100    64   101 1   
   101    65   101 1   
   102    66   101 1   
   103    93   102 1   
   104    94   102 1   
   105    98   102 1   
   106    98   103 1   
   107    98   104 1   
@<TRIPOS>SUBSTRUCTURE
     1 9XB         1 TEMP              0 ****  ****    0 ROOT
