@<TRIPOS>MOLECULE
9XC
   39    40     1     0     0
SMALL
abcg2


@<TRIPOS>ATOM
      1 N1          -3.5880     0.1080     1.2450 nb         1 9XC      -0.281000
      2 C2          -1.5210     0.4060     0.0770 cp         1 9XC      -0.296500
      3 C3          -2.4240     0.7340     1.0630 ca         1 9XC       0.168900
      4 C4          -3.8380    -0.8800     0.4110 ca         1 9XC       0.396300
      5 C5          -1.9210    -0.6660    -0.7500 ca         1 9XC       0.401300
      6 C6          -5.8870    -1.1900     1.5400 c3         1 9XC       0.163900
      7 N8           3.1030    -3.3810     0.9260 nv         1 9XC      -1.083200
      8 C9           2.1510     2.3660    -0.3750 ca         1 9XC       0.696900
      9 C10         -0.1400     2.4680    -0.4640 ca         1 9XC       0.666900
     10 C12          3.7850    -2.1890     0.8770 c2         1 9XC       0.661800
     11 O3           4.3970     0.5690     0.1170 o          1 9XC      -0.583100
     12 N6           2.9340    -1.1410     0.5390 ns         1 9XC      -0.433400
     13 N7           5.0090    -1.9960     1.1660 n2         1 9XC      -0.827100
     14 C8           2.0710     0.9920    -0.0240 ca         1 9XC       0.077500
     15 N3           0.8750     0.4250     0.1060 nb         1 9XC      -0.575000
     16 N9           3.3040     3.0260    -0.5050 nv         1 9XC      -1.058900
     17 N4           1.0330     3.0630    -0.5910 nb         1 9XC      -0.846000
     18 N5          -1.2420     3.2010    -0.6840 nv         1 9XC      -1.064900
     19 C1          -0.2290     1.0930    -0.0870 cp         1 9XC       0.246500
     20 O2          -1.1120    -1.0210    -1.7260 os         1 9XC      -0.436300
     21 C7          -1.5070    -2.0860    -2.5870 c3         1 9XC       0.154900
     22 N2          -3.0590    -1.2980    -0.5800 nb         1 9XC      -0.294000
     23 O1          -4.9650    -1.5630     0.5210 os         1 9XC      -0.434300
     24 H1          -2.2040     1.5420     1.7530 h4         1 9XC       0.033100
     25 H2          -5.4510    -1.2910     2.5340 h1         1 9XC       0.052033
     26 H3          -6.2370    -0.1660     1.4090 h1         1 9XC       0.052033
     27 H4          -6.7260    -1.8730     1.4410 h1         1 9XC       0.052033
     28 H5           2.3390    -3.5090     0.2810 hn         1 9XC       0.457500
     29 H6           3.6750    -4.2060     1.0110 hn         1 9XC       0.457500
     30 H7           1.9380    -1.3190     0.5650 hn         1 9XC       0.351500
     31 H8           5.4640    -2.8830     1.3560 hn         1 9XC       0.377400
     32 H9           4.1810     2.5460    -0.3950 hn         1 9XC       0.519000
     33 H10          3.2900     3.9900    -0.7880 hn         1 9XC       0.519000
     34 H11         -2.1390     2.7590    -0.7900 hn         1 9XC       0.496000
     35 H12         -1.1410     4.1210    -1.0790 hn         1 9XC       0.496000
     36 H13         -0.7100    -2.1830    -3.3180 h1         1 9XC       0.053033
     37 H14         -1.6160    -3.0220    -2.0400 h1         1 9XC       0.053033
     38 H15         -2.4440    -1.8610    -3.0960 h1         1 9XC       0.053033
     39 C11          3.2560     0.1450     0.2150 c          1 9XC       0.558600
@<TRIPOS>BOND
     1     1     3 ar  
     2     1     4 ar  
     3     2     3 ar  
     4     2     5 ar  
     5     2    19 1   
     6     3    24 1   
     7     4    22 ar  
     8     4    23 1   
     9     5    20 1   
    10     5    22 ar  
    11     6    23 1   
    12     6    25 1   
    13     6    26 1   
    14     6    27 1   
    15     7    10 1   
    16     7    28 1   
    17     7    29 1   
    18     8    14 ar  
    19     8    16 1   
    20     8    17 ar  
    21     9    17 ar  
    22     9    18 1   
    23     9    19 ar  
    24    10    12 1   
    25    10    13 2   
    26    11    39 2   
    27    12    30 1   
    28    12    39 1   
    29    13    31 1   
    30    14    15 ar  
    31    14    39 1   
    32    15    19 ar  
    33    16    32 1   
    34    16    33 1   
    35    18    34 1   
    36    18    35 1   
    37    20    21 1   
    38    21    36 1   
    39    21    37 1   
    40    21    38 1   
@<TRIPOS>SUBSTRUCTURE
     1 9XC         1 TEMP              0 ****  ****    0 ROOT
