@<TRIPOS>MOLECULE
9XC
   39    40     1     0     0
SMALL
No Charge or Current Charge


@<TRIPOS>ATOM
      1 N1          -3.7460     0.2310     1.1910 nb         1 9XC      -0.281000
      2 C2          -1.6000     0.3660     0.1010 cp         1 9XC      -0.296500
      3 C3          -2.5510     0.8260     1.0330 ca         1 9XC       0.168900
      4 C4          -4.0170    -0.8390     0.4110 ca         1 9XC       0.396300
      5 C5          -1.9850    -0.7530    -0.6710 ca         1 9XC       0.401300
      6 C6          -6.2160    -1.0360     1.5000 c3         1 9XC       0.163900
      7 N8           3.4770    -3.3570     0.4790 nv         1 9XC      -1.083200
      8 C9           2.0890     2.3280    -0.2340 ca         1 9XC       0.696900
      9 C10         -0.1350     2.4670    -0.3130 ca         1 9XC       0.666900
     10 C12          4.0210    -2.1720     0.7740 c2         1 9XC       0.661800
     11 O3           4.4300     0.5810     0.0110 o          1 9XC      -0.583100
     12 N6           3.1040    -1.2030     0.5220 ns         1 9XC      -0.433400
     13 N7           5.0840    -2.0350     1.4290 n2         1 9XC      -0.827100
     14 C8           2.0330     0.9210     0.0380 ca         1 9XC       0.077500
     15 N3           0.8230     0.2740     0.1440 nb         1 9XC      -0.575000
     16 N9           3.1760     3.1000    -0.3490 nv         1 9XC      -1.058900
     17 N4           1.0260     3.1100    -0.4200 nb         1 9XC      -0.846000
     18 N5          -1.1190     3.3570    -0.5310 nv         1 9XC      -1.064900
     19 C1          -0.2790     1.0470    -0.0400 cp         1 9XC       0.246500
     20 O2          -1.1040    -1.1920    -1.6370 os         1 9XC      -0.436300
     21 C7          -1.4020    -2.3410    -2.4540 c3         1 9XC       0.154900
     22 N2          -3.1840    -1.3470    -0.5150 nb         1 9XC      -0.294000
     23 O1          -5.2310    -1.4770     0.5420 os         1 9XC      -0.434300
     24 H1          -2.3450     1.6820     1.6750 h4         1 9XC       0.033100
     25 H2          -5.8190    -1.0890     2.5220 h1         1 9XC       0.052033
     26 H3          -6.5250    -0.0020     1.2990 h1         1 9XC       0.052033
     27 H4          -7.1090    -1.6720     1.4500 h1         1 9XC       0.052033
     28 H5           2.8920    -3.3420    -0.3490 hn         1 9XC       0.457500
     29 H6           4.1210    -4.1400     0.5070 hn         1 9XC       0.457500
     30 H7           2.1360    -1.4740     0.5930 hn         1 9XC       0.351500
     31 H8           5.4940    -2.9640     1.5790 hn         1 9XC       0.377400
     32 H9           4.0550     2.6170    -0.5120 hn         1 9XC       0.519000
     33 H10          3.0230     3.9710    -0.8400 hn         1 9XC       0.519000
     34 H11         -1.9910     2.9940    -0.8980 hn         1 9XC       0.496000
     35 H12         -0.7950     4.2300    -0.9280 hn         1 9XC       0.496000
     36 H13         -0.5800    -2.5360    -3.1540 h1         1 9XC       0.053033
     37 H14         -1.5410    -3.2370    -1.8350 h1         1 9XC       0.053033
     38 H15         -2.3160    -2.1790    -3.0410 h1         1 9XC       0.053033
     39 C11          3.3100     0.1150     0.1940 c          1 9XC       0.558600
@<TRIPOS>BOND
     1     1     3 ar  
     2     1     4 ar  
     3     2     3 ar  
     4     2     5 ar  
     5     2    19 1   
     6     3    24 1   
     7     4    22 ar  
     8     4    23 1   
     9     5    20 1   
    10     5    22 ar  
    11     6    23 1   
    12     6    25 1   
    13     6    26 1   
    14     6    27 1   
    15     7    10 1   
    16     7    28 1   
    17     7    29 1   
    18     8    14 ar  
    19     8    16 1   
    20     8    17 ar  
    21     9    17 ar  
    22     9    18 1   
    23     9    19 ar  
    24    10    12 1   
    25    10    13 2   
    26    11    39 2   
    27    12    30 1   
    28    12    39 1   
    29    13    31 1   
    30    14    15 ar  
    31    14    39 1   
    32    15    19 ar  
    33    16    32 1   
    34    16    33 1   
    35    18    34 1   
    36    18    35 1   
    37    20    21 1   
    38    21    36 1   
    39    21    37 1   
    40    21    38 1   
@<TRIPOS>SUBSTRUCTURE
     1 9XC         1 TEMP              0 ****  ****    0 ROOT
