@<TRIPOS>MOLECULE
9XE
   48    51     1     0     0
SMALL
bcc


@<TRIPOS>ATOM
      1 C12         -1.0750     2.3320    -1.2330 ca         1 9XE       0.419200
      2 C15          0.1330     0.4490    -0.4110 ca         1 9XE      -0.056000
      3 C16          2.5880     0.6820     0.0000 cp         1 9XE      -0.051000
      4 C20          3.8910    -0.7180     1.4800 ca         1 9XE      -0.153500
      5 C19          5.0510    -0.3400     0.8190 ca         1 9XE       0.148100
      6 C18          5.0000     0.5440    -0.2490 ca         1 9XE      -0.153500
      7 C11         -8.8170     0.1240     2.2430 c3         1 9XE       0.125700
      8 C6          -3.7730    -1.6420    -1.3920 c          1 9XE       0.593900
      9 C5          -4.7770    -1.0480    -0.5140 ca         1 9XE      -0.249600
     10 C3          -5.4590     0.7170     1.0220 ca         1 9XE      -0.251000
     11 C2          -6.6900     0.1050     1.1850 ca         1 9XE       0.204100
     12 N1           0.0160     3.0820    -1.2570 nb         1 9XE      -0.660000
     13 C8          -2.5150    -0.9270    -1.5100 cc         1 9XE      -0.245400
     14 C9          -1.4980    -1.4900    -2.4540 c3         1 9XE      -0.027900
     15 C10         -1.0720     1.0040    -0.8170 ca         1 9XE      -0.199100
     16 F2           7.8630     0.4390     0.7120 f          1 9XE      -0.225967
     17 F            7.3880    -1.2610    -0.5150 f          1 9XE      -0.225967
     18 F1           8.2400    -1.5480     1.4420 f          1 9XE      -0.225967
     19 O2           6.2010    -0.9040     1.3330 os         1 9XE      -0.383900
     20 C17          3.7670     1.0420    -0.6460 ca         1 9XE      -0.087500
     21 C21          2.6730    -0.2060     1.0730 ca         1 9XE      -0.087500
     22 C14          1.2880     1.2220    -0.4300 cp         1 9XE      -0.149300
     23 C13          1.1590     2.5430    -0.8640 ca         1 9XE       0.423200
     24 C7          -2.3230     0.2170    -0.7920 cd         1 9XE       0.203800
     25 C           -6.0320    -1.6390    -0.3320 ca         1 9XE       0.001000
     26 N           -3.2900     0.7330     0.0100 na         1 9XE      -0.599400
     27 C4          -4.5100     0.1430     0.1750 ca         1 9XE       0.223600
     28 C1          -6.9810    -1.0870     0.4950 ca         1 9XE      -0.261000
     29 O1          -7.5480     0.7110     2.0160 os         1 9XE      -0.316900
     30 H1          -1.9950     2.7980    -1.5690 h4         1 9XE       0.029100
     31 H2           0.1690    -0.5860    -0.0900 ha         1 9XE       0.153000
     32 H3           3.9430    -1.4020     2.3160 ha         1 9XE       0.156000
     33 H4           5.8770     0.8640    -0.7920 ha         1 9XE       0.156000
     34 H5          -9.3260     0.7640     2.9580 h1         1 9XE       0.045033
     35 H6          -9.4120     0.0740     1.3280 h1         1 9XE       0.045033
     36 H7          -8.7310    -0.8790     2.6660 h1         1 9XE       0.045033
     37 H8          -5.2350     1.6370     1.5480 ha         1 9XE       0.148000
     38 H10         -1.9470    -1.6830    -3.4290 hc         1 9XE       0.045367
     39 H11         -0.6570    -0.8180    -2.6070 hc         1 9XE       0.045367
     40 H12         -1.1010    -2.4420    -2.0960 hc         1 9XE       0.045367
     41 H13          3.7420     1.7120    -1.4960 ha         1 9XE       0.141500
     42 H14          1.7820    -0.4960     1.6150 ha         1 9XE       0.141500
     43 H15          2.0260     3.1960    -0.8740 h4         1 9XE       0.026100
     44 H16         -6.2580    -2.5580    -0.8560 ha         1 9XE       0.155000
     45 H17         -7.9390    -1.5770     0.6020 ha         1 9XE       0.141000
     46 H9          -3.0810     1.5640     0.5440 hn         1 9XE       0.452800
     47 O           -3.9840    -2.6900    -2.0060 o          1 9XE      -0.570100
     48 C22          7.3950    -0.8100     0.7390 c3         1 9XE       0.864700
@<TRIPOS>BOND
     1     1    12 ar  
     2     1    15 ar  
     3     1    30 1   
     4     2    15 ar  
     5     2    22 ar  
     6     2    31 1   
     7     3    20 ar  
     8     3    21 ar  
     9     3    22 1   
    10     4     5 ar  
    11     4    21 ar  
    12     4    32 1   
    13     5     6 ar  
    14     5    19 1   
    15     6    20 ar  
    16     6    33 1   
    17     7    29 1   
    18     7    34 1   
    19     7    35 1   
    20     7    36 1   
    21     8     9 1   
    22     8    13 1   
    23     8    47 2   
    24     9    25 ar  
    25     9    27 ar  
    26    10    11 ar  
    27    10    27 ar  
    28    10    37 1   
    29    11    28 ar  
    30    11    29 1   
    31    12    23 ar  
    32    13    14 1   
    33    13    24 2   
    34    14    38 1   
    35    14    39 1   
    36    14    40 1   
    37    15    24 1   
    38    16    48 1   
    39    17    48 1   
    40    18    48 1   
    41    19    48 1   
    42    20    41 1   
    43    21    42 1   
    44    22    23 ar  
    45    23    43 1   
    46    24    26 1   
    47    25    28 ar  
    48    25    44 1   
    49    26    27 1   
    50    26    46 1   
    51    28    45 1   
@<TRIPOS>SUBSTRUCTURE
     1 9XE         1 TEMP              0 ****  ****    0 ROOT
