@<TRIPOS>MOLECULE
9XE
   48    51     1     0     0
SMALL
No Charge or Current Charge


@<TRIPOS>ATOM
      1 C12         -1.1420     2.3470    -0.2200 ca         1 9XE       0.353900
      2 C15          0.2220     0.3620    -0.1070 ca         1 9XE      -0.038000
      3 C16          2.7510     0.6130     0.0370 cp         1 9XE      -0.051000
      4 C20          4.2970    -1.1020     0.8760 ca         1 9XE      -0.135500
      5 C19          5.3780    -0.4790     0.2360 ca         1 9XE       0.148100
      6 C18          5.1500     0.6990    -0.5090 ca         1 9XE      -0.135500
      7 C11         -9.4700     0.6490     1.0840 c3         1 9XE       0.148900
      8 C6          -3.6690    -1.9640    -0.5760 c          1 9XE       0.593900
      9 C5          -4.8480    -1.2170    -0.1230 ca         1 9XE      -0.249600
     10 C3          -5.7690     0.8410     0.7210 ca         1 9XE      -0.233000
     11 C2          -7.0610     0.3050     0.6780 ca         1 9XE       0.204100
     12 N1          -0.0630     3.1620    -0.1880 nb         1 9XE      -0.660000
     13 C8          -2.4370    -1.1610    -0.7340 cc         1 9XE      -0.245400
     14 C9          -1.3690    -1.8920    -1.5370 c3         1 9XE      -0.027900
     15 C10         -1.0650     0.9370    -0.2040 ca         1 9XE      -0.133800
     16 F2           8.1220     0.6950     0.2240 f          1 9XE      -0.104667
     17 F            7.7570    -0.5100    -1.5670 f          1 9XE      -0.104667
     18 F1           8.8850    -1.3340     0.0960 f          1 9XE      -0.104667
     19 O2           6.6220    -1.0670     0.3770 os         1 9XE      -0.407100
     20 C17          3.8520     1.2340    -0.6030 ca         1 9XE      -0.069500
     21 C21          3.0010    -0.5670     0.7800 ca         1 9XE      -0.069500
     22 C14          1.3720     1.1890    -0.0680 cp         1 9XE      -0.084000
     23 C13          1.1580     2.5890    -0.1210 ca         1 9XE       0.357900
     24 C7          -2.3170     0.1420    -0.2420 cd         1 9XE       0.203800
     25 C           -6.1390    -1.7800    -0.1650 ca         1 9XE       0.019000
     26 N           -3.4120     0.6650     0.4700 na         1 9XE      -0.793000
     27 C4          -4.6610     0.0840     0.3170 ca         1 9XE       0.362000
     28 C1          -7.2470    -1.0180     0.2350 ca         1 9XE      -0.243000
     29 O1          -8.1060     1.1070     1.0870 os         1 9XE      -0.340100
     30 H1          -2.1040     2.8530    -0.2900 h4         1 9XE       0.029100
     31 H2           0.3450    -0.7120    -0.0250 ha         1 9XE       0.135000
     32 H3           4.4660    -2.0070     1.4540 ha         1 9XE       0.138000
     33 H4           5.9560     1.2140    -1.0220 ha         1 9XE       0.138000
     34 H5         -10.1370     1.4420     1.4450 h1         1 9XE       0.045033
     35 H6          -9.7870     0.3730     0.0710 h1         1 9XE       0.045033
     36 H7          -9.5910    -0.2220     1.7420 h1         1 9XE       0.045033
     37 H8          -5.6310     1.8560     1.0790 ha         1 9XE       0.130000
     38 H10         -1.8040    -2.5080    -2.3330 hc         1 9XE       0.045367
     39 H11         -0.6960    -1.1940    -2.0480 hc         1 9XE       0.045367
     40 H12         -0.7720    -2.5520    -0.8970 hc         1 9XE       0.045367
     41 H13          3.7010     2.1350    -1.1920 ha         1 9XE       0.123500
     42 H14          2.1880    -1.0670     1.3020 ha         1 9XE       0.123500
     43 H15          2.0010     3.2780    -0.0830 h4         1 9XE       0.026100
     44 H16         -6.2890    -2.8010    -0.5160 ha         1 9XE       0.137000
     45 H17         -8.2340    -1.4690     0.1910 ha         1 9XE       0.123000
     46 H9          -3.3180     1.5100     1.0270 hn         1 9XE       0.508000
     47 O           -3.7490    -3.1570    -0.8520 o          1 9XE      -0.570100
     48 C22          7.8300    -0.5510    -0.2160 c3         1 9XE       0.524000
@<TRIPOS>BOND
     1     1    12 ar  
     2     1    15 ar  
     3     1    30 1   
     4     2    15 ar  
     5     2    22 ar  
     6     2    31 1   
     7     3    20 ar  
     8     3    21 ar  
     9     3    22 1   
    10     4     5 ar  
    11     4    21 ar  
    12     4    32 1   
    13     5     6 ar  
    14     5    19 1   
    15     6    20 ar  
    16     6    33 1   
    17     7    29 1   
    18     7    34 1   
    19     7    35 1   
    20     7    36 1   
    21     8     9 1   
    22     8    13 1   
    23     8    47 2   
    24     9    25 ar  
    25     9    27 ar  
    26    10    11 ar  
    27    10    27 ar  
    28    10    37 1   
    29    11    28 ar  
    30    11    29 1   
    31    12    23 ar  
    32    13    14 1   
    33    13    24 2   
    34    14    38 1   
    35    14    39 1   
    36    14    40 1   
    37    15    24 1   
    38    16    48 1   
    39    17    48 1   
    40    18    48 1   
    41    19    48 1   
    42    20    41 1   
    43    21    42 1   
    44    22    23 ar  
    45    23    43 1   
    46    24    26 1   
    47    25    28 ar  
    48    25    44 1   
    49    26    27 1   
    50    26    46 1   
    51    28    45 1   
@<TRIPOS>SUBSTRUCTURE
     1 9XE         1 TEMP              0 ****  ****    0 ROOT
