@<TRIPOS>MOLECULE
9XF
   36    38     1     0     0
SMALL
abcg2


@<TRIPOS>ATOM
      1 C1           3.6230    -0.1250     0.0850 ca         1 9XF       0.060100
      2 N1          -0.8780     0.3180     0.0210 nb         1 9XF      -0.585000
      3 C2           4.9860     0.0900     0.1630 ca         1 9XF      -0.107000
      4 N2          -0.9990     3.0320    -0.0780 nb         1 9XF      -0.865000
      5 O2          -4.3930     0.4860     0.0640 o          1 9XF      -0.582100
      6 C3           5.7850    -1.0440     0.1450 ca         1 9XF      -0.093000
      7 N3          -3.2710     3.0060    -0.0670 nv         1 9XF      -1.054900
      8 C4           5.2290    -2.3260     0.0520 ca         1 9XF      -0.128000
      9 C5           3.8610    -2.5160    -0.0250 ca         1 9XF      -0.061000
     10 C6           3.0350    -1.3890    -0.0080 ca         1 9XF      -0.103800
     11 C7           1.6240    -1.1560    -0.0660 cc         1 9XF      -0.215200
     12 C8           1.4580     0.1910    -0.0040 cd         1 9XF       0.003300
     13 C9           0.2470     0.9920    -0.0130 ca         1 9XF       0.230800
     14 C10         -2.0620     0.9030     0.0080 ca         1 9XF       0.084500
     15 C11         -2.1250     2.3250    -0.0460 ca         1 9XF       0.705900
     16 C12          0.1790     2.4250    -0.0640 ca         1 9XF       0.696900
     17 C13         -3.2580     0.0360     0.0700 c          1 9XF       0.558600
     18 C14         -3.8140    -2.3740     0.2820 c2         1 9XF       0.660800
     19 N4          -2.9510    -1.2920     0.1240 ns         1 9XF      -0.433400
     20 N6          -5.0010    -2.2260     0.7130 n2         1 9XF      -0.825100
     21 N5          -3.1740    -3.5560    -0.0000 nv         1 9XF      -1.083200
     22 N7           1.2560     3.2130    -0.1060 nv         1 9XF      -1.061900
     23 O1           2.6600     0.8270     0.0870 os         1 9XF      -0.206200
     24 H1           5.4070     1.0840     0.2340 ha         1 9XF       0.126000
     25 H2           6.8600    -0.9330     0.2020 ha         1 9XF       0.116000
     26 H3          -3.2460     4.0110    -0.0850 hn         1 9XF       0.520500
     27 H4          -4.1530     2.5250    -0.0280 hn         1 9XF       0.520500
     28 H5           5.8890    -3.1840     0.0410 ha         1 9XF       0.115000
     29 H6           3.4420    -3.5110    -0.0980 ha         1 9XF       0.120000
     30 H7           0.8410    -1.8910    -0.1450 ha         1 9XF       0.218000
     31 H8          -1.9590    -1.4880     0.0920 hn         1 9XF       0.349500
     32 H9          -5.4810    -3.1190     0.7320 hn         1 9XF       0.379400
     33 H10         -2.4940    -3.5480    -0.7450 hn         1 9XF       0.458500
     34 H11         -3.7600    -4.3750    -0.0220 hn         1 9XF       0.458500
     35 H12          2.1940     2.8610    -0.0710 hn         1 9XF       0.511000
     36 H13          1.1220     4.2100    -0.1220 hn         1 9XF       0.511000
@<TRIPOS>BOND
     1     1     3 ar  
     2     1    10 ar  
     3     1    23 1   
     4     2    13 ar  
     5     2    14 ar  
     6     3     6 ar  
     7     3    24 1   
     8     4    15 ar  
     9     4    16 ar  
    10     5    17 2   
    11     6     8 ar  
    12     6    25 1   
    13     7    15 1   
    14     7    26 1   
    15     7    27 1   
    16     8     9 ar  
    17     8    28 1   
    18     9    10 ar  
    19     9    29 1   
    20    10    11 1   
    21    11    12 2   
    22    11    30 1   
    23    12    13 1   
    24    12    23 1   
    25    13    16 ar  
    26    14    15 ar  
    27    14    17 1   
    28    16    22 1   
    29    17    19 1   
    30    18    19 1   
    31    18    20 2   
    32    18    21 1   
    33    19    31 1   
    34    20    32 1   
    35    21    33 1   
    36    21    34 1   
    37    22    35 1   
    38    22    36 1   
@<TRIPOS>SUBSTRUCTURE
     1 9XF         1 TEMP              0 ****  ****    0 ROOT
