@<TRIPOS>MOLECULE
9XF
   36    38     1     0     0
SMALL
No Charge or Current Charge


@<TRIPOS>ATOM
      1 C1           3.7690    -0.0630     0.0320 ca         1 9XF       0.060100
      2 N1          -0.8560     0.0830     0.0030 nb         1 9XF      -0.585000
      3 C2           5.1420     0.1970     0.0590 ca         1 9XF      -0.107000
      4 N2          -0.9850     2.9740    -0.1910 nb         1 9XF      -0.865000
      5 O2          -4.4520     0.5240     0.1580 o          1 9XF      -0.582100
      6 C3           6.0120    -0.9140     0.1260 ca         1 9XF      -0.093000
      7 N3          -3.1280     3.0130    -0.1670 nv         1 9XF      -1.054900
      8 C4           5.4910    -2.2330     0.1640 ca         1 9XF      -0.128000
      9 C5           4.0960    -2.4600     0.1350 ca         1 9XF      -0.061000
     10 C6           3.2570    -1.3400     0.0680 ca         1 9XF      -0.103800
     11 C7           1.8130    -1.2370     0.0260 cc         1 9XF      -0.215200
     12 C8           1.5600     0.1280    -0.0380 cd         1 9XF       0.003300
     13 C9           0.2690     0.8560    -0.0790 ca         1 9XF       0.230800
     14 C10         -2.0490     0.7720    -0.0170 ca         1 9XF       0.084500
     15 C11         -2.0670     2.2020    -0.1220 ca         1 9XF       0.705900
     16 C12          0.1620     2.2950    -0.1780 ca         1 9XF       0.696900
     17 C13         -3.3480    -0.0070     0.0970 c          1 9XF       0.558600
     18 C14         -4.1250    -2.3390     0.2730 c2         1 9XF       0.660800
     19 N4          -3.1840    -1.3710     0.1230 ns         1 9XF      -0.433400
     20 N6          -5.1040    -2.3080     1.0590 n2         1 9XF      -0.825100
     21 N5          -3.6840    -3.4530    -0.3200 nv         1 9XF      -1.083200
     22 N7           1.1480     3.2030    -0.2610 nv         1 9XF      -1.061900
     23 O1           2.7440     0.8310    -0.0300 os         1 9XF      -0.206200
     24 H1           5.5230     1.2150     0.0300 ha         1 9XF       0.126000
     25 H2           7.0880    -0.7570     0.1490 ha         1 9XF       0.116000
     26 H3          -2.9190     3.9730     0.0740 hn         1 9XF       0.520500
     27 H4          -4.0110     2.6290     0.1590 hn         1 9XF       0.520500
     28 H5           6.1720    -3.0800     0.2150 ha         1 9XF       0.115000
     29 H6           3.6890    -3.4680     0.1640 ha         1 9XF       0.120000
     30 H7           1.0720    -2.0330     0.0470 ha         1 9XF       0.218000
     31 H8          -2.2300    -1.6850     0.0430 hn         1 9XF       0.349500
     32 H9          -5.5490    -3.2320     1.0600 hn         1 9XF       0.379400
     33 H10         -3.1910    -3.2840    -1.1910 hn         1 9XF       0.458500
     34 H11         -4.3640    -4.2030    -0.3790 hn         1 9XF       0.458500
     35 H12          2.0610     2.9110     0.0690 hn         1 9XF       0.511000
     36 H13          0.8560     4.1460    -0.0380 hn         1 9XF       0.511000
@<TRIPOS>BOND
     1     1     3 ar  
     2     1    10 ar  
     3     1    23 1   
     4     2    13 ar  
     5     2    14 ar  
     6     3     6 ar  
     7     3    24 1   
     8     4    15 ar  
     9     4    16 ar  
    10     5    17 2   
    11     6     8 ar  
    12     6    25 1   
    13     7    15 1   
    14     7    26 1   
    15     7    27 1   
    16     8     9 ar  
    17     8    28 1   
    18     9    10 ar  
    19     9    29 1   
    20    10    11 1   
    21    11    12 2   
    22    11    30 1   
    23    12    13 1   
    24    12    23 1   
    25    13    16 ar  
    26    14    15 ar  
    27    14    17 1   
    28    16    22 1   
    29    17    19 1   
    30    18    19 1   
    31    18    20 2   
    32    18    21 1   
    33    19    31 1   
    34    20    32 1   
    35    21    33 1   
    36    21    34 1   
    37    22    35 1   
    38    22    36 1   
@<TRIPOS>SUBSTRUCTURE
     1 9XF         1 TEMP              0 ****  ****    0 ROOT
