@<TRIPOS>MOLECULE
9XG
   27    28     1     0     0
SMALL
abcg2


@<TRIPOS>ATOM
      1 CAA          4.5450     0.9780    -0.5700 c3         1 9XG      -0.048800
      2 CAB         -4.2540    -0.4140    -0.3110 ca         1 9XG      -0.150000
      3 CAC         -3.9600     0.8260     0.2430 ca         1 9XG      -0.074500
      4 CAD         -3.2060    -1.2300    -0.7150 ca         1 9XG      -0.074500
      5 CAE          2.2310    -1.7640     0.6460 ca         1 9XG      -0.076000
      6 CAF          3.3830    -1.0990     0.2520 ca         1 9XG      -0.147000
      7 CAG         -2.6470     1.2330     0.4070 ca         1 9XG      -0.171000
      8 CAH         -1.8860    -0.8280    -0.5700 ca         1 9XG      -0.171000
      9 CAI          0.9940    -1.1380     0.6220 ca         1 9XG      -0.165000
     10 CAJ          2.0650     0.8450    -0.2180 ca         1 9XG      -0.175000
     11 CAL          3.3070     0.2260    -0.1750 ca         1 9XG      -0.039300
     12 CAM         -1.5870     0.4110     0.0050 ca         1 9XG       0.325000
     13 CAN          0.8970     0.1820     0.1750 ca         1 9XG       0.325000
     14 NAK         -0.2950     0.8880     0.1520 nu         1 9XG      -0.998000
     15 HAB          5.0590     1.3700     0.3100 hc         1 9XG       0.042367
     16 HAC          5.2520     0.3360    -1.0960 hc         1 9XG       0.042367
     17 HAA          4.3120     1.8250    -1.2150 hc         1 9XG       0.042367
     18 HAE         -4.7600     1.4830     0.5600 ha         1 9XG       0.110000
     19 HAF         -3.4140    -2.1930    -1.1640 ha         1 9XG       0.110000
     20 HAG          2.2950    -2.7880     0.9910 ha         1 9XG       0.111000
     21 HAH          4.3390    -1.6070     0.2830 ha         1 9XG       0.113000
     22 HAI         -2.4320     2.1980     0.8520 ha         1 9XG       0.116500
     23 HAJ         -1.0950    -1.4750    -0.9250 ha         1 9XG       0.116500
     24 HAK          0.1200    -1.6710     0.9710 ha         1 9XG       0.123000
     25 HAL          1.9950     1.8700    -0.5680 ha         1 9XG       0.109000
     26 HAM         -0.2060     1.8910     0.1860 hn         1 9XG       0.491000
     27 HAD         -5.2790    -0.7360    -0.4310 ha         1 9XG       0.114000
@<TRIPOS>BOND
     1     1    11 1   
     2     1    15 1   
     3     1    16 1   
     4     1    17 1   
     5     2     3 ar  
     6     2     4 ar  
     7     2    27 1   
     8     3     7 ar  
     9     3    18 1   
    10     4     8 ar  
    11     4    19 1   
    12     5     6 ar  
    13     5     9 ar  
    14     5    20 1   
    15     6    11 ar  
    16     6    21 1   
    17     7    12 ar  
    18     7    22 1   
    19     8    12 ar  
    20     8    23 1   
    21     9    13 ar  
    22     9    24 1   
    23    10    11 ar  
    24    10    13 ar  
    25    10    25 1   
    26    12    14 1   
    27    13    14 1   
    28    14    26 1   
@<TRIPOS>SUBSTRUCTURE
     1 9XG         1 TEMP              0 ****  ****    0 ROOT
