@<TRIPOS>MOLECULE
9XG
   27    28     1     0     0
SMALL
No Charge or Current Charge


@<TRIPOS>ATOM
      1 CAA          4.6030     1.0020    -0.5550 c3         1 9XG      -0.048800
      2 CAB         -4.3180    -0.3970    -0.2800 ca         1 9XG      -0.150000
      3 CAC         -4.0020     0.8450     0.2950 ca         1 9XG      -0.074500
      4 CAD         -3.2930    -1.2380    -0.7440 ca         1 9XG      -0.074500
      5 CAE          2.2800    -1.7930     0.6630 ca         1 9XG      -0.076000
      6 CAF          3.4380    -1.0940     0.2830 ca         1 9XG      -0.147000
      7 CAG         -2.6580     1.2410     0.4130 ca         1 9XG      -0.171000
      8 CAH         -1.9500    -0.8370    -0.6230 ca         1 9XG      -0.171000
      9 CAI          1.0270    -1.1610     0.5980 ca         1 9XG      -0.165000
     10 CAJ          2.0890     0.8650    -0.2140 ca         1 9XG      -0.175000
     11 CAL          3.3490     0.2390    -0.1560 ca         1 9XG      -0.039300
     12 CAM         -1.6260     0.3980    -0.0310 ca         1 9XG       0.325000
     13 CAN          0.9250     0.1670     0.1460 ca         1 9XG       0.325000
     14 NAK         -0.3030     0.8290     0.0880 nu         1 9XG      -0.998000
     15 HAB          5.0230     1.5380     0.3040 hc         1 9XG       0.042367
     16 HAC          5.3760     0.3260    -0.9400 hc         1 9XG       0.042367
     17 HAA          4.3900     1.7380    -1.3390 hc         1 9XG       0.042367
     18 HAE         -4.7960     1.5000     0.6490 ha         1 9XG       0.110000
     19 HAF         -3.5370    -2.1940    -1.2020 ha         1 9XG       0.110000
     20 HAG          2.3550    -2.8200     1.0130 ha         1 9XG       0.111000
     21 HAH          4.4060    -1.5880     0.3380 ha         1 9XG       0.113000
     22 HAI         -2.4210     2.2020     0.8600 ha         1 9XG       0.116500
     23 HAJ         -1.1680    -1.4830    -1.0080 ha         1 9XG       0.116500
     24 HAK          0.1420    -1.7010     0.9190 ha         1 9XG       0.123000
     25 HAL          2.0160     1.8960    -0.5490 ha         1 9XG       0.109000
     26 HAM         -0.2150     1.8440     0.1420 hn         1 9XG       0.491000
     27 HAD         -5.3580    -0.7040    -0.3740 ha         1 9XG       0.114000
@<TRIPOS>BOND
     1     1    11 1   
     2     1    15 1   
     3     1    16 1   
     4     1    17 1   
     5     2     3 ar  
     6     2     4 ar  
     7     2    27 1   
     8     3     7 ar  
     9     3    18 1   
    10     4     8 ar  
    11     4    19 1   
    12     5     6 ar  
    13     5     9 ar  
    14     5    20 1   
    15     6    11 ar  
    16     6    21 1   
    17     7    12 ar  
    18     7    22 1   
    19     8    12 ar  
    20     8    23 1   
    21     9    13 ar  
    22     9    24 1   
    23    10    11 ar  
    24    10    13 ar  
    25    10    25 1   
    26    12    14 1   
    27    13    14 1   
    28    14    26 1   
@<TRIPOS>SUBSTRUCTURE
     1 9XG         1 TEMP              0 ****  ****    0 ROOT
