@<TRIPOS>MOLECULE
9XH
   67    71     1     0     0
SMALL
bcc


@<TRIPOS>ATOM
      1 C1           7.4810     2.3930    -0.9620 ca         1 9XH      -0.107500
      2 C2           7.5050     2.8440    -2.2760 ca         1 9XH      -0.124000
      3 C3           6.7320     2.2210    -3.2520 ca         1 9XH      -0.124000
      4 C4           5.9230     1.1390    -2.9280 ca         1 9XH      -0.107500
      5 C5           5.9020     0.6960    -1.6150 ca         1 9XH      -0.102800
      6 C6           6.6700     1.3150    -0.6420 ca         1 9XH      -0.102800
      7 C7           6.4730     0.6570     0.6860 c5         1 9XH       0.153300
      8 C12          3.9380    -2.1800     0.9830 c3         1 9XH       0.108500
      9 N13          4.1110    -3.3660     1.7950 n8         1 9XH      -0.872800
     10 C18         -0.9940    -2.5360     0.3930 c6         1 9XH       0.096500
     11 C19         -1.8350    -1.6190    -0.4760 c6         1 9XH       0.140300
     12 C21         -1.0160     0.2750     0.6880 c6         1 9XH       0.140300
     13 C23         -3.1190     0.4410    -0.4740 c3         1 9XH       0.284100
     14 C24         -4.3420    -0.3040    -0.9730 ca         1 9XH      -0.104800
     15 C27         -6.6250    -1.5680    -1.8920 ca         1 9XH       0.140400
     16 C30         -4.7660    -0.1390    -2.2850 ca         1 9XH      -0.089250
     17 C31         -3.5920     1.6070     0.3730 ca         1 9XH      -0.104800
     18 C32         -3.9000     1.4460     1.7220 ca         1 9XH      -0.089250
     19 C33         -4.3970     2.5000     2.4730 ca         1 9XH      -0.171500
     20 C34         -4.5900     3.7210     1.8530 ca         1 9XH       0.140400
     21 C36         -4.2910     3.9200     0.5210 ca         1 9XH      -0.171500
     22 C37         -3.7880     2.8520    -0.2110 ca         1 9XH      -0.089250
     23 N8           5.4960    -0.3840     0.3820 n          1 9XH      -0.485800
     24 C9           5.1230    -0.4400    -1.0300 c5         1 9XH       0.153300
     25 C10          5.0230    -1.1760     1.3560 c          1 9XH       0.674100
     26 O11          5.4100    -1.0720     2.5130 o          1 9XH      -0.600100
     27 C14          2.5870    -1.4650     1.1490 c3         1 9XH      -0.203400
     28 O16          1.6250    -3.3060    -0.0350 o          1 9XH      -0.613100
     29 N17          0.1810    -1.8410     0.8840 n          1 9XH      -0.477800
     30 N20         -2.2190    -0.4280     0.2690 n3         1 9XH      -0.717600
     31 C22         -0.1540    -0.6100     1.5720 c6         1 9XH       0.096500
     32 C25         -5.0890    -1.1230    -0.1280 ca         1 9XH      -0.089250
     33 C26         -6.2310    -1.7640    -0.5810 ca         1 9XH      -0.171500
     34 F28         -7.7330    -2.1860    -2.3360 f          1 9XH      -0.142900
     35 C29         -5.9130    -0.7650    -2.7580 ca         1 9XH      -0.171500
     36 F35         -5.0760     4.7460     2.5730 f          1 9XH      -0.142900
     37 H1           8.0850     2.8780    -0.2050 ha         1 9XH       0.136500
     38 H2           8.1300     3.6870    -2.5420 ha         1 9XH       0.133500
     39 H3           6.7610     2.5840    -4.2710 ha         1 9XH       0.133500
     40 H4           5.3200     0.6580    -3.6880 ha         1 9XH       0.136500
     41 H5           7.4010     0.2320     1.0790 h1         1 9XH       0.062700
     42 H6           4.0510    -2.4840    -0.0590 h1         1 9XH       0.087700
     43 H7           3.9570    -3.1430     2.7710 hn         1 9XH       0.358300
     44 H8           3.4090    -4.0460     1.5360 hn         1 9XH       0.358300
     45 H11         -1.5890    -2.8700     1.2490 h1         1 9XH       0.063450
     46 H12         -0.6940    -3.4150    -0.1710 h1         1 9XH       0.063450
     47 H13         -1.2750    -1.3610    -1.3900 h1         1 9XH       0.047200
     48 H14         -2.7220    -2.1690    -0.7880 h1         1 9XH       0.047200
     49 H15         -0.4240     0.6090    -0.1810 h1         1 9XH       0.047200
     50 H16         -1.2820     1.1650     1.2570 h1         1 9XH       0.047200
     51 H17         -2.6120     0.8600    -1.3610 h1         1 9XH       0.034700
     52 H18         -4.1940     0.4890    -2.9570 ha         1 9XH       0.139500
     53 H19         -3.7290     0.4900     2.2010 ha         1 9XH       0.139500
     54 H20         -4.6280     2.3730     3.5220 ha         1 9XH       0.151500
     55 H21         -4.4420     4.8880     0.0610 ha         1 9XH       0.151500
     56 H22         -3.5430     3.0000    -1.2560 ha         1 9XH       0.139500
     57 H23          4.0480    -0.3050    -1.1760 h1         1 9XH       0.062700
     58 H24          2.4440    -1.2440     2.2110 hc         1 9XH       0.070700
     59 H25          2.5890    -0.4960     0.6370 hc         1 9XH       0.070700
     60 H29          0.7390    -0.0630     1.8600 h1         1 9XH       0.063450
     61 H30         -0.7020    -0.8510     2.4890 h1         1 9XH       0.063450
     62 H31         -4.7710    -1.2810     0.8950 ha         1 9XH       0.139500
     63 H32         -6.8040    -2.4070     0.0740 ha         1 9XH       0.151500
     64 H33         -6.2370    -0.6330    -3.7820 ha         1 9XH       0.151500
     65 H9           5.3980    -1.3960    -1.4840 h1         1 9XH       0.062700
     66 H10          6.0890     1.3510     1.4400 h1         1 9XH       0.062700
     67 C15          1.4250    -2.2860     0.6160 c          1 9XH       0.671100
@<TRIPOS>BOND
     1     1     2 ar  
     2     1     6 ar  
     3     1    37 1   
     4     2     3 ar  
     5     2    38 1   
     6     3     4 ar  
     7     3    39 1   
     8     4     5 ar  
     9     4    40 1   
    10     5     6 ar  
    11     5    24 1   
    12     6     7 1   
    13     7    23 1   
    14     7    41 1   
    15     7    66 1   
    16     8     9 1   
    17     8    25 1   
    18     8    27 1   
    19     8    42 1   
    20     9    43 1   
    21     9    44 1   
    22    10    11 1   
    23    10    29 1   
    24    10    45 1   
    25    10    46 1   
    26    11    30 1   
    27    11    47 1   
    28    11    48 1   
    29    12    30 1   
    30    12    31 1   
    31    12    49 1   
    32    12    50 1   
    33    13    14 1   
    34    13    17 1   
    35    13    30 1   
    36    13    51 1   
    37    14    16 ar  
    38    14    32 ar  
    39    15    33 ar  
    40    15    34 1   
    41    15    35 ar  
    42    16    35 ar  
    43    16    52 1   
    44    17    18 ar  
    45    17    22 ar  
    46    18    19 ar  
    47    18    53 1   
    48    19    20 ar  
    49    19    54 1   
    50    20    21 ar  
    51    20    36 1   
    52    21    22 ar  
    53    21    55 1   
    54    22    56 1   
    55    23    24 1   
    56    23    25 1   
    57    24    57 1   
    58    24    65 1   
    59    25    26 2   
    60    27    58 1   
    61    27    59 1   
    62    27    67 1   
    63    28    67 2   
    64    29    31 1   
    65    29    67 1   
    66    31    60 1   
    67    31    61 1   
    68    32    33 ar  
    69    32    62 1   
    70    33    63 1   
    71    35    64 1   
@<TRIPOS>SUBSTRUCTURE
     1 9XH         1 TEMP              0 ****  ****    0 ROOT
