@<TRIPOS>MOLECULE
9XH
   67    71     1     0     0
SMALL
No Charge or Current Charge


@<TRIPOS>ATOM
      1 C1           7.7960     1.9560    -1.4610 ca         1 9XH      -0.089500
      2 C2           7.7810     2.1080    -2.8620 ca         1 9XH      -0.106000
      3 C3           6.8970     1.3400    -3.6490 ca         1 9XH      -0.106000
      4 C4           6.0250     0.4170    -3.0370 ca         1 9XH      -0.089500
      5 C5           6.0550     0.2790    -1.6400 ca         1 9XH      -0.102800
      6 C6           6.9200     1.0310    -0.8700 ca         1 9XH      -0.102800
      7 C7           6.7840     0.7240     0.5980 c5         1 9XH       0.153300
      8 C12          4.0980    -2.0210     1.6410 c3         1 9XH       0.108500
      9 N13          3.9940    -3.0220     2.7570 n8         1 9XH      -0.983200
     10 C18         -0.5690    -1.9650    -0.5020 c6         1 9XH       0.096500
     11 C19         -1.6870    -1.0340    -1.0410 c6         1 9XH       0.140300
     12 C21         -1.1730     0.6610     0.6010 c6         1 9XH       0.140300
     13 C23         -3.4210     0.6450    -0.4540 c3         1 9XH       0.284100
     14 C24         -4.5450    -0.1980    -1.0670 ca         1 9XH      -0.104800
     15 C27         -6.6250    -1.7220    -2.2060 ca         1 9XH       0.175500
     16 C30         -5.1270     0.1920    -2.2920 ca         1 9XH      -0.071250
     17 C31         -4.0130     1.5550     0.6280 ca         1 9XH      -0.104800
     18 C32         -4.2880     1.0600     1.9210 ca         1 9XH      -0.071250
     19 C33         -4.8380     1.9040     2.9030 ca         1 9XH      -0.153500
     20 C34         -5.1180     3.2430     2.5950 ca         1 9XH       0.175500
     21 C36         -4.8520     3.7450     1.3130 ca         1 9XH      -0.153500
     22 C37         -4.3010     2.9030     0.3300 ca         1 9XH      -0.071250
     23 N8           5.6870    -0.2950     0.5740 n          1 9XH      -0.418800
     24 C9           5.2090    -0.6440    -0.8050 c5         1 9XH       0.153300
     25 C10          5.2970    -0.9910     1.7370 c          1 9XH       0.607100
     26 O11          5.8640    -0.7650     2.8030 o          1 9XH      -0.600100
     27 C14          2.7390    -1.2870     1.4840 c3         1 9XH      -0.203400
     28 O16          1.8660    -3.1110     0.1710 o          1 9XH      -0.613100
     29 N17          0.4850    -1.2880     0.3150 n          1 9XH      -0.410800
     30 N20         -2.2660    -0.1680     0.0230 n3         1 9XH      -0.717600
     31 C22         -0.0270    -0.1960     1.2040 c6         1 9XH       0.096500
     32 C25         -5.0190    -1.3590    -0.4170 ca         1 9XH      -0.071250
     33 C26         -6.0560    -2.1190    -0.9870 ca         1 9XH      -0.153500
     34 F28         -7.6210    -2.4520    -2.7530 f          1 9XH      -0.178000
     35 C29         -6.1640    -0.5700    -2.8600 ca         1 9XH      -0.153500
     36 F35         -5.6470     4.0530     3.5380 f          1 9XH      -0.178000
     37 H1           8.4760     2.5450    -0.8490 ha         1 9XH       0.118500
     38 H2           8.4530     2.8200    -3.3370 ha         1 9XH       0.115500
     39 H3           6.8880     1.4610    -4.7300 ha         1 9XH       0.115500
     40 H4           5.3410    -0.1780    -3.6390 ha         1 9XH       0.118500
     41 H5           7.7150     0.3130     1.0090 h1         1 9XH       0.062700
     42 H6           4.2890    -2.5900     0.7200 h1         1 9XH       0.087700
     43 H7           3.8720    -2.5240     3.6470 hn         1 9XH       0.413500
     44 H8           3.1260    -3.5610     2.6500 hn         1 9XH       0.413500
     45 H11         -1.0360    -2.7440     0.1160 h1         1 9XH       0.063450
     46 H12         -0.1020    -2.4710    -1.3590 h1         1 9XH       0.063450
     47 H13         -1.2670    -0.4120    -1.8450 h1         1 9XH       0.047200
     48 H14         -2.4570    -1.6680    -1.5010 h1         1 9XH       0.047200
     49 H15         -0.7480     1.3150    -0.1750 h1         1 9XH       0.047200
     50 H16         -1.5510     1.3190     1.3960 h1         1 9XH       0.047200
     51 H17         -3.0450     1.3010    -1.2520 h1         1 9XH       0.034700
     52 H18         -4.7770     1.0860    -2.8040 ha         1 9XH       0.121500
     53 H19         -4.0680     0.0240     2.1670 ha         1 9XH       0.121500
     54 H20         -5.0460     1.5210     3.8990 ha         1 9XH       0.133500
     55 H21         -5.0730     4.7840     1.0820 ha         1 9XH       0.133500
     56 H22         -4.1000     3.3000    -0.6630 ha         1 9XH       0.121500
     57 H23          4.1410    -0.4340    -0.9400 h1         1 9XH       0.062700
     58 H24          2.3010    -1.0200     2.4530 hc         1 9XH       0.070700
     59 H25          2.8730    -0.2890     1.0520 hc         1 9XH       0.070700
     60 H29          0.7860     0.4890     1.4760 h1         1 9XH       0.063450
     61 H30         -0.3910    -0.6540     2.1350 h1         1 9XH       0.063450
     62 H31         -4.5790    -1.6740     0.5250 ha         1 9XH       0.121500
     63 H32         -6.4180    -3.0130    -0.4860 ha         1 9XH       0.133500
     64 H33         -6.6120    -0.2680    -3.8050 ha         1 9XH       0.133500
     65 H9           5.4070    -1.6950    -1.0560 h1         1 9XH       0.062700
     66 H10          6.4980     1.6150     1.1720 h1         1 9XH       0.062700
     67 C15          1.6710    -1.9920     0.6270 c          1 9XH       0.604100
@<TRIPOS>BOND
     1     1     2 ar  
     2     1     6 ar  
     3     1    37 1   
     4     2     3 ar  
     5     2    38 1   
     6     3     4 ar  
     7     3    39 1   
     8     4     5 ar  
     9     4    40 1   
    10     5     6 ar  
    11     5    24 1   
    12     6     7 1   
    13     7    23 1   
    14     7    41 1   
    15     7    66 1   
    16     8     9 1   
    17     8    25 1   
    18     8    27 1   
    19     8    42 1   
    20     9    43 1   
    21     9    44 1   
    22    10    11 1   
    23    10    29 1   
    24    10    45 1   
    25    10    46 1   
    26    11    30 1   
    27    11    47 1   
    28    11    48 1   
    29    12    30 1   
    30    12    31 1   
    31    12    49 1   
    32    12    50 1   
    33    13    14 1   
    34    13    17 1   
    35    13    30 1   
    36    13    51 1   
    37    14    16 ar  
    38    14    32 ar  
    39    15    33 ar  
    40    15    34 1   
    41    15    35 ar  
    42    16    35 ar  
    43    16    52 1   
    44    17    18 ar  
    45    17    22 ar  
    46    18    19 ar  
    47    18    53 1   
    48    19    20 ar  
    49    19    54 1   
    50    20    21 ar  
    51    20    36 1   
    52    21    22 ar  
    53    21    55 1   
    54    22    56 1   
    55    23    24 1   
    56    23    25 1   
    57    24    57 1   
    58    24    65 1   
    59    25    26 2   
    60    27    58 1   
    61    27    59 1   
    62    27    67 1   
    63    28    67 2   
    64    29    31 1   
    65    29    67 1   
    66    31    60 1   
    67    31    61 1   
    68    32    33 ar  
    69    32    62 1   
    70    33    63 1   
    71    35    64 1   
@<TRIPOS>SUBSTRUCTURE
     1 9XH         1 TEMP              0 ****  ****    0 ROOT
