@<TRIPOS>MOLECULE
9XI
   50    53     1     0     0
SMALL
No Charge or Current Charge


@<TRIPOS>ATOM
      1 C10          2.4720    -2.4090    83.5220 ca         1 9XI      -0.176600
      2 C13          0.2310    -1.5910    85.0410 ca         1 9XI       0.138600
      3 C15          1.2450    -3.1170    83.4000 ca         1 9XI       0.089700
      4 C26         -4.6300    -2.8670    83.9990 ca         1 9XI      -0.084500
      5 C28         -6.1230    -4.7210    84.5120 ca         1 9XI      -0.102000
      6 C1           5.2780    -6.2160    81.6440 c6         1 9XI      -0.075200
      7 C2           5.3060    -6.9420    83.0080 c6         1 9XI      -0.064400
      8 C3           4.0390    -6.5930    83.8160 c6         1 9XI      -0.183400
      9 C4           3.9090    -5.0810    84.0070 c          1 9XI       0.610300
     10 C5           4.1970    -4.2330    82.8210 ce         1 9XI      -0.495400
     11 C6           4.8440    -4.7610    81.7580 c2         1 9XI       0.288900
     12 C9           3.7460    -2.8160    82.8250 c          1 9XI       0.640900
     13 C11          2.5300    -1.2490    84.3050 ca         1 9XI      -0.011000
     14 C12          1.4160    -0.8290    85.0300 ca         1 9XI      -0.186000
     15 C14          0.1210    -2.7160    84.1980 ca         1 9XI      -0.211600
     16 C16         -1.2060    -3.4510    84.1810 c          1 9XI       0.599600
     17 C19         -2.1930    -1.7020    85.6020 c          1 9XI       0.626000
     18 C23          1.1270    -4.2250    82.3420 c3         1 9XI      -0.055800
     19 C25         -3.5940    -3.4930    84.7190 ca         1 9XI       0.048600
     20 C27         -5.8920    -3.4800    83.8950 ca         1 9XI      -0.106000
     21 C29         -5.0940    -5.3490    85.2330 ca         1 9XI      -0.106000
     22 C30         -3.8320    -4.7370    85.3370 ca         1 9XI      -0.084500
     23 N17         -0.9210    -1.1230    85.7590 n          1 9XI      -0.303000
     24 N18         -2.3040    -2.8610    84.8260 n          1 9XI      -0.304600
     25 O7           5.1530    -4.0460    80.6730 oh         1 9XI      -0.537100
     26 O20         -1.3400    -4.5420    83.6420 o          1 9XI      -0.511000
     27 O21         -3.1770    -1.2250    86.1560 o          1 9XI      -0.543000
     28 O24          4.3400    -2.0030    82.1260 o          1 9XI      -0.598100
     29 H1          -1.5930    -0.0360    87.4940 h1         1 9XI       0.057367
     30 H2           0.1570    -0.2280    87.3640 h1         1 9XI       0.057367
     31 H3          -0.6930     0.9240    86.2890 h1         1 9XI       0.057367
     32 H4          -4.4570    -1.9060    83.5200 ha         1 9XI       0.121000
     33 H5          -7.0990    -5.1950    84.4310 ha         1 9XI       0.113000
     34 H6           4.5840    -6.7330    80.9680 hc         1 9XI       0.080200
     35 H7           6.2690    -6.2790    81.1740 hc         1 9XI       0.080200
     36 H8           5.3830    -8.0280    82.8590 hc         1 9XI       0.056200
     37 H9           6.1980    -6.6350    83.5730 hc         1 9XI       0.056200
     38 H10          3.9880    -7.1100    84.7830 hc         1 9XI       0.073200
     39 H11          3.1840    -6.9070    83.2020 hc         1 9XI       0.073200
     40 H12          3.4510    -0.6720    84.3610 ha         1 9XI       0.121000
     41 H13          1.5080     0.0890    85.6030 ha         1 9XI       0.126000
     42 H14          1.1430    -5.2210    82.8000 hc         1 9XI       0.059033
     43 H15          0.2020    -4.1240    81.7630 hc         1 9XI       0.059033
     44 H16          1.9180    -4.1880    81.5870 hc         1 9XI       0.059033
     45 H17         -6.6880    -2.9920    83.3370 ha         1 9XI       0.115000
     46 H18         -5.2730    -6.3100    85.7120 ha         1 9XI       0.115000
     47 H19         -3.0400    -5.2260    85.8980 ha         1 9XI       0.121000
     48 H20          4.9400    -3.1120    80.9260 ho         1 9XI       0.549000
     49 C22         -0.7570    -0.0540    86.7840 c3         1 9XI       0.084300
     50 O8           3.5920    -4.6120    85.0890 o          1 9XI      -0.535100
@<TRIPOS>BOND
     1     1     3 ar  
     2     1    12 1   
     3     1    13 ar  
     4     2    14 ar  
     5     2    15 ar  
     6     2    23 1   
     7     3    15 ar  
     8     3    18 1   
     9     4    19 ar  
    10     4    20 ar  
    11     4    32 1   
    12     5    20 ar  
    13     5    21 ar  
    14     5    33 1   
    15     6     7 1   
    16     6    11 1   
    17     6    34 1   
    18     6    35 1   
    19     7     8 1   
    20     7    36 1   
    21     7    37 1   
    22     8     9 1   
    23     8    38 1   
    24     8    39 1   
    25     9    10 1   
    26     9    50 2   
    27    10    11 2   
    28    10    12 1   
    29    11    25 1   
    30    12    28 2   
    31    13    14 ar  
    32    13    40 1   
    33    14    41 1   
    34    15    16 1   
    35    16    24 1   
    36    16    26 2   
    37    17    23 1   
    38    17    24 1   
    39    17    27 2   
    40    18    42 1   
    41    18    43 1   
    42    18    44 1   
    43    19    22 ar  
    44    19    24 1   
    45    20    45 1   
    46    21    22 ar  
    47    21    46 1   
    48    22    47 1   
    49    23    49 1   
    50    25    48 1   
    51    29    49 1   
    52    30    49 1   
    53    31    49 1   
@<TRIPOS>SUBSTRUCTURE
     1 9XI         1 TEMP              0 ****  ****    0 ROOT
