@<TRIPOS>MOLECULE
9XI
   50    53     1     0     0
SMALL
bcc


@<TRIPOS>ATOM
      1 C10          2.1650    -2.7550    83.2760 ca         1 9XI      -0.176600
      2 C13          0.1450    -1.8110    84.9440 ca         1 9XI       0.138600
      3 C15          0.8830    -3.2700    83.1210 ca         1 9XI       0.089700
      4 C26         -4.7020    -2.6830    84.0440 ca         1 9XI      -0.102500
      5 C28         -6.3000    -4.3360    84.7560 ca         1 9XI      -0.120000
      6 C1           6.0050    -5.8600    81.9680 c6         1 9XI      -0.075200
      7 C2           5.9030    -6.4650    83.3560 c6         1 9XI      -0.064400
      8 C3           4.4440    -6.6700    83.7200 c6         1 9XI      -0.183400
      9 C4           3.6230    -5.4050    83.6240 c          1 9XI       0.610300
     10 C5           4.0340    -4.4090    82.6260 ce         1 9XI      -0.495400
     11 C6           5.1630    -4.6380    81.8390 c2         1 9XI       0.288900
     12 C9           3.3220    -3.1630    82.4250 c          1 9XI       0.640900
     13 C11          2.4210    -1.7570    84.2070 ca         1 9XI      -0.029000
     14 C12          1.4340    -1.2910    85.0450 ca         1 9XI      -0.204000
     15 C14         -0.1350    -2.7880    83.9710 ca         1 9XI      -0.211600
     16 C16         -1.5050    -3.2980    83.8820 c          1 9XI       0.742100
     17 C19         -2.1210    -1.8420    85.7880 c          1 9XI       0.835500
     18 C23          0.6430    -4.3080    82.0630 c3         1 9XI      -0.055800
     19 C25         -3.7290    -3.3150    84.8020 ca         1 9XI       0.048600
     20 C27         -5.9920    -3.1970    84.0230 ca         1 9XI      -0.124000
     21 C29         -5.3170    -4.9630    85.5090 ca         1 9XI      -0.124000
     22 C30         -4.0270    -4.4530    85.5330 ca         1 9XI      -0.102500
     23 N17         -0.8430    -1.3580    85.8030 n          1 9XI      -0.370000
     24 N18         -2.3950    -2.7950    84.8230 n          1 9XI      -0.438600
     25 O7           5.5520    -3.7990    80.9340 oh         1 9XI      -0.498100
     26 O20         -1.9030    -4.1120    83.0770 o          1 9XI      -0.586500
     27 O21         -2.9820    -1.4750    86.5580 o          1 9XI      -0.618500
     28 O24          3.7010    -2.3410    81.5770 o          1 9XI      -0.598100
     29 H1          -1.3990    -0.0980    87.3650 h1         1 9XI       0.057367
     30 H2           0.2570    -0.6940    87.4680 h1         1 9XI       0.057367
     31 H3          -0.1670     0.5700    86.2940 h1         1 9XI       0.057367
     32 H4          -4.4540    -1.7960    83.4760 ha         1 9XI       0.139000
     33 H5          -7.3060    -4.7350    84.7380 ha         1 9XI       0.131000
     34 H6           5.6560    -6.5790    81.2180 hc         1 9XI       0.080200
     35 H7           7.0340    -5.6100    81.7050 hc         1 9XI       0.080200
     36 H8           6.4390    -7.4130    83.3850 hc         1 9XI       0.056200
     37 H9           6.3830    -5.8050    84.0830 hc         1 9XI       0.056200
     38 H10          4.3310    -7.0780    84.7250 hc         1 9XI       0.073200
     39 H11          3.9940    -7.3970    83.0320 hc         1 9XI       0.073200
     40 H12          3.4190    -1.3470    84.3020 ha         1 9XI       0.139000
     41 H13          1.6830    -0.5290    85.7670 ha         1 9XI       0.144000
     42 H14          0.2830    -5.2420    82.4890 hc         1 9XI       0.059033
     43 H15         -0.0970    -3.9780    81.3370 hc         1 9XI       0.059033
     44 H16          1.5550    -4.5300    81.5140 hc         1 9XI       0.059033
     45 H17         -6.7550    -2.7060    83.4340 ha         1 9XI       0.133000
     46 H18         -5.5530    -5.8520    86.0800 ha         1 9XI       0.133000
     47 H19         -3.2550    -4.9360    86.1190 ha         1 9XI       0.139000
     48 H20          4.9020    -3.0210    80.9530 ho         1 9XI       0.510000
     49 C22         -0.5150    -0.3370    86.7880 c3         1 9XI       0.084300
     50 O8           2.6450    -5.2590    84.3320 o          1 9XI      -0.535100
@<TRIPOS>BOND
     1     1     3 ar  
     2     1    12 1   
     3     1    13 ar  
     4     2    14 ar  
     5     2    15 ar  
     6     2    23 1   
     7     3    15 ar  
     8     3    18 1   
     9     4    19 ar  
    10     4    20 ar  
    11     4    32 1   
    12     5    20 ar  
    13     5    21 ar  
    14     5    33 1   
    15     6     7 1   
    16     6    11 1   
    17     6    34 1   
    18     6    35 1   
    19     7     8 1   
    20     7    36 1   
    21     7    37 1   
    22     8     9 1   
    23     8    38 1   
    24     8    39 1   
    25     9    10 1   
    26     9    50 2   
    27    10    11 2   
    28    10    12 1   
    29    11    25 1   
    30    12    28 2   
    31    13    14 ar  
    32    13    40 1   
    33    14    41 1   
    34    15    16 1   
    35    16    24 1   
    36    16    26 2   
    37    17    23 1   
    38    17    24 1   
    39    17    27 2   
    40    18    42 1   
    41    18    43 1   
    42    18    44 1   
    43    19    22 ar  
    44    19    24 1   
    45    20    45 1   
    46    21    22 ar  
    47    21    46 1   
    48    22    47 1   
    49    23    49 1   
    50    25    48 1   
    51    29    49 1   
    52    30    49 1   
    53    31    49 1   
@<TRIPOS>SUBSTRUCTURE
     1 9XI         1 TEMP              0 ****  ****    0 ROOT
