@<TRIPOS>MOLECULE
9XJ
   44    47     1     0     0
SMALL
No Charge or Current Charge


@<TRIPOS>ATOM
      1 CAH          4.5090    -2.1140     1.0030 c6         1 9XJ      -0.071400
      2 CAI          5.2240    -2.9400    -0.0960 c6         1 9XJ       0.159800
      3 NAJ          4.2660    -3.7980    -0.8330 n7         1 9XJ      -0.861400
      4 CAK          3.1640    -3.0240    -1.4530 c6         1 9XJ       0.159800
      5 CAL          2.3900    -2.1980    -0.3960 c6         1 9XJ      -0.071400
      6 CAG          3.3460    -1.2720     0.4100 c6         1 9XJ      -0.084700
      7 CAF          2.6050    -0.4690     1.5210 c3         1 9XJ       0.104600
      8 NAE          1.5460     0.4380     1.0370 na         1 9XJ      -0.018100
      9 NAM          0.1800     0.1290     1.0910 nc         1 9XJ      -0.586100
     10 C6           1.7940     1.6480     0.3910 ca         1 9XJ       0.179500
     11 N1           2.9280     2.3080     0.0860 nb         1 9XJ      -0.240000
     12 C2           2.7600     3.4790    -0.5790 ca         1 9XJ       0.204900
     13 N3           1.5810     4.0340    -0.9590 nb         1 9XJ      -0.318000
     14 C4           0.4770     3.3480    -0.6370 ca         1 9XJ       0.473900
     15 NAA         -0.7000     3.8910    -1.0040 nv         1 9XJ      -1.063900
     16 C5           0.5760     2.1480     0.0420 ca         1 9XJ      -0.408900
     17 CAN         -0.3760     1.1980     0.5170 cd         1 9XJ       0.600200
     18 OAO         -1.6870     1.2770     0.1320 os         1 9XJ      -0.323700
     19 CAP         -2.5240     0.1870     0.1210 ca         1 9XJ       0.112100
     20 CAV         -3.7480     0.2580     0.8060 ca         1 9XJ      -0.101000
     21 CAT         -4.6260    -0.8390     0.7850 ca         1 9XJ       0.127000
     22 Cl          -6.1540    -0.7540     1.6510 cl         1 9XJ      -0.196000
     23 CAS         -4.2870    -2.0020     0.0730 ca         1 9XJ      -0.102000
     24 CAR         -3.0690    -2.0700    -0.6260 ca         1 9XJ      -0.092000
     25 CAQ         -2.1890    -0.9730    -0.6060 ca         1 9XJ      -0.109000
     26 H1           4.1240    -2.7950     1.7760 hc         1 9XJ       0.049700
     27 H2           5.2370    -1.4580     1.4990 hc         1 9XJ       0.049700
     28 H3           5.7200    -2.2570    -0.8020 h1         1 9XJ       0.029450
     29 H4           6.0020    -3.5680     0.3630 h1         1 9XJ       0.029450
     30 H5           4.7740    -4.3020    -1.5720 hn         1 9XJ       0.409000
     31 H7           3.5790    -2.3460    -2.2140 h1         1 9XJ       0.029450
     32 H8           2.4730    -3.7120    -1.9610 h1         1 9XJ       0.029450
     33 H9           1.6170    -1.6030    -0.9020 hc         1 9XJ       0.049700
     34 H10          1.8630    -2.8790     0.2860 hc         1 9XJ       0.049700
     35 H11          3.7760    -0.5300    -0.2790 hc         1 9XJ       0.062700
     36 H12          2.1600    -1.1750     2.2330 h1         1 9XJ       0.071700
     37 H13          3.3390     0.1330     2.0710 h1         1 9XJ       0.071700
     38 H14          3.6650     4.0280    -0.8350 h5         1 9XJ       0.045100
     39 H15         -1.5220     3.2940    -0.9860 hn         1 9XJ       0.508000
     40 H16         -0.6890     4.6310    -1.7010 hn         1 9XJ       0.508000
     41 H17         -4.0140     1.1570     1.3530 ha         1 9XJ       0.144000
     42 H18         -4.9710    -2.8480     0.0600 ha         1 9XJ       0.133000
     43 H19         -2.8080    -2.9670    -1.1830 ha         1 9XJ       0.122000
     44 H20         -1.2500    -1.0220    -1.1530 ha         1 9XJ       0.132000
@<TRIPOS>BOND
     1     1     2 1   
     2     1     6 1   
     3     1    26 1   
     4     1    27 1   
     5     2     3 1   
     6     2    28 1   
     7     2    29 1   
     8     3     4 1   
     9     3    30 1   
    10     4     5 1   
    11     4    31 1   
    12     4    32 1   
    13     5     6 1   
    14     5    33 1   
    15     5    34 1   
    16     6     7 1   
    17     6    35 1   
    18     7     8 1   
    19     7    36 1   
    20     7    37 1   
    21     8     9 1   
    22     8    10 1   
    23     9    17 2   
    24    10    11 ar  
    25    10    16 ar  
    26    11    12 ar  
    27    12    13 ar  
    28    12    38 1   
    29    13    14 ar  
    30    14    15 1   
    31    14    16 ar  
    32    15    39 1   
    33    15    40 1   
    34    16    17 1   
    35    17    18 1   
    36    18    19 1   
    37    19    20 ar  
    38    19    25 ar  
    39    20    21 ar  
    40    20    41 1   
    41    21    22 1   
    42    21    23 ar  
    43    23    24 ar  
    44    23    42 1   
    45    24    25 ar  
    46    24    43 1   
    47    25    44 1   
@<TRIPOS>SUBSTRUCTURE
     1 9XJ         1 TEMP              0 ****  ****    0 ROOT
