@<TRIPOS>MOLECULE
9XJ
   44    47     1     0     0
SMALL
abcg2


@<TRIPOS>ATOM
      1 CAH          4.2360    -2.1320     1.0880 c6         1 9XJ      -0.071400
      2 CAI          5.0290    -2.9580     0.0870 c6         1 9XJ       0.159800
      3 NAJ          4.1240    -3.7450    -0.7320 n7         1 9XJ      -0.861400
      4 CAK          3.2220    -2.9020    -1.4960 c6         1 9XJ       0.159800
      5 CAL          2.3540    -2.0720    -0.5590 c6         1 9XJ      -0.071400
      6 CAG          3.2240    -1.2360     0.3760 c6         1 9XJ      -0.084700
      7 CAF          2.4200    -0.4590     1.4140 c3         1 9XJ       0.104600
      8 NAE          1.4710     0.4700     0.8430 na         1 9XJ      -0.018100
      9 NAM          0.1650     0.1350     0.7020 nc         1 9XJ      -0.586100
     10 C6           1.7250     1.6760     0.3150 ca         1 9XJ       0.179500
     11 N1           2.9000     2.3130     0.2730 nb         1 9XJ      -0.240000
     12 C2           2.8060     3.4900    -0.3130 ca         1 9XJ       0.204900
     13 N3           1.7340     4.0810    -0.8390 nb         1 9XJ      -0.318000
     14 C4           0.5600     3.4420    -0.7940 ca         1 9XJ       0.473900
     15 NAA         -0.5090     4.0360    -1.3160 nv         1 9XJ      -1.063900
     16 C5           0.5180     2.1660    -0.1940 ca         1 9XJ      -0.408900
     17 CAN         -0.4030     1.1330     0.0920 cd         1 9XJ       0.600200
     18 OAO         -1.7100     1.1830    -0.2110 os         1 9XJ      -0.323700
     19 CAP         -2.4630     0.0470    -0.0160 ca         1 9XJ       0.112100
     20 CAV         -3.3910     0.0550     1.0110 ca         1 9XJ      -0.101000
     21 CAT         -4.2010    -1.0600     1.1730 ca         1 9XJ       0.127000
     22 CL          -5.3740    -1.0630     2.4470 cl         1 9XJ      -0.196000
     23 CAS         -4.0890    -2.1650     0.3460 ca         1 9XJ      -0.102000
     24 CAR         -3.1450    -2.1430    -0.6720 ca         1 9XJ      -0.092000
     25 CAQ         -2.3260    -1.0410    -0.8630 ca         1 9XJ      -0.109000
     26 H1           3.7100    -2.8060     1.7730 hc         1 9XJ       0.049700
     27 H2           4.9200    -1.5300     1.6910 hc         1 9XJ       0.049700
     28 H3           5.6560    -2.2770    -0.5130 h1         1 9XJ       0.029450
     29 H4           5.7080    -3.6320     0.6130 h1         1 9XJ       0.029450
     30 H5           4.6620    -4.3220    -1.3650 hn         1 9XJ       0.409000
     31 H7           3.7590    -2.2170    -2.1750 h1         1 9XJ       0.029450
     32 H8           2.5910    -3.5350    -2.1230 h1         1 9XJ       0.029450
     33 H9           1.6950    -1.4340    -1.1510 hc         1 9XJ       0.049700
     34 H10          1.7130    -2.7380     0.0300 hc         1 9XJ       0.049700
     35 H11          3.7830    -0.5120    -0.2320 hc         1 9XJ       0.062700
     36 H12          1.8540    -1.1420     2.0480 h1         1 9XJ       0.071700
     37 H13          3.0960     0.1030     2.0600 h1         1 9XJ       0.071700
     38 H14          3.7260     4.0620    -0.3820 h5         1 9XJ       0.045100
     39 H15         -1.4150     3.6000    -1.3160 hn         1 9XJ       0.508000
     40 H16         -0.4200     4.9400    -1.7490 hn         1 9XJ       0.508000
     41 H17         -3.4840     0.9150     1.6620 ha         1 9XJ       0.144000
     42 H18         -4.7270    -3.0260     0.4870 ha         1 9XJ       0.133000
     43 H19         -3.0500    -2.9980    -1.3270 ha         1 9XJ       0.122000
     44 H20         -1.5970    -1.0290    -1.6630 ha         1 9XJ       0.132000
@<TRIPOS>BOND
     1     1     2 1   
     2     1     6 1   
     3     1    26 1   
     4     1    27 1   
     5     2     3 1   
     6     2    28 1   
     7     2    29 1   
     8     3     4 1   
     9     3    30 1   
    10     4     5 1   
    11     4    31 1   
    12     4    32 1   
    13     5     6 1   
    14     5    33 1   
    15     5    34 1   
    16     6     7 1   
    17     6    35 1   
    18     7     8 1   
    19     7    36 1   
    20     7    37 1   
    21     8     9 1   
    22     8    10 1   
    23     9    17 2   
    24    10    11 ar  
    25    10    16 ar  
    26    11    12 ar  
    27    12    13 ar  
    28    12    38 1   
    29    13    14 ar  
    30    14    15 1   
    31    14    16 ar  
    32    15    39 1   
    33    15    40 1   
    34    16    17 1   
    35    17    18 1   
    36    18    19 1   
    37    19    20 ar  
    38    19    25 ar  
    39    20    21 ar  
    40    20    41 1   
    41    21    22 1   
    42    21    23 ar  
    43    23    24 ar  
    44    23    42 1   
    45    24    25 ar  
    46    24    43 1   
    47    25    44 1   
@<TRIPOS>SUBSTRUCTURE
     1 9XJ         1 TEMP              0 ****  ****    0 ROOT
