@<TRIPOS>MOLECULE
9XK
   49    53     1     0     0
SMALL
No Charge or Current Charge


@<TRIPOS>ATOM
      1 C01         10.1020     0.4640    -0.1770 c3         1 9XK      -0.048800
      2 C02          8.6210     0.1210    -0.1170 ca         1 9XK      -0.068300
      3 C03          7.6510     1.1410    -0.1880 ca         1 9XK      -0.070000
      4 C04          6.2950     0.7890    -0.1270 ca         1 9XK      -0.174000
      5 C05          5.8750    -0.5210     0.0020 ca         1 9XK       0.114400
      6 C06          6.8340    -1.5450     0.0750 ca         1 9XK      -0.055000
      7 C07          8.2060    -1.2220     0.0160 ca         1 9XK      -0.107000
      8 N08          4.5030    -0.7450     0.0520 nc         1 9XK      -0.542100
      9 C09          3.9070     0.4520    -0.0440 cd         1 9XK       0.473800
     10 N10          2.5430     0.6370    -0.0320 ns         1 9XK      -0.410400
     11 C11          1.5390    -0.3020     0.0750 c          1 9XK       0.617100
     12 O12          1.7340    -1.5050     0.1800 o          1 9XK      -0.504100
     13 C13          0.1310     0.3030     0.0500 c3         1 9XK      -0.080400
     14 S14         -1.2220    -0.9680     0.2090 ss         1 9XK      -0.111200
     15 C15         -2.7320    -0.0340     0.1170 cc         1 9XK       0.501800
     16 N16         -2.5220     1.2850     0.0900 nd         1 9XK      -0.659300
     17 C17         -3.6530     2.0800     0.1720 cd         1 9XK       0.168400
     18 C18         -4.8990     1.5230     0.3180 cc         1 9XK      -0.154600
     19 S19         -6.1800     2.7450     0.3610 ss         1 9XK      -0.243600
     20 C20         -5.0270     3.9690    -0.4170 c5         1 9XK       0.040600
     21 C21         -3.6480     3.5850     0.1560 c5         1 9XK      -0.029200
     22 C22         -5.1360     0.0780     0.3040 c          1 9XK       0.593200
     23 O23         -6.2580    -0.4130     0.3540 o          1 9XK      -0.504000
     24 N24         -3.9690    -0.6870     0.1990 n          1 9XK      -0.228500
     25 C25         -4.0580    -2.1230     0.0490 ca         1 9XK       0.001600
     26 C26         -3.4170    -2.7890    -1.0190 ca         1 9XK      -0.077500
     27 C27         -3.4770    -4.1900    -1.1270 ca         1 9XK      -0.104000
     28 C28         -4.1680    -4.9420    -0.1640 ca         1 9XK      -0.091000
     29 C29         -4.7980    -4.2910     0.9090 ca         1 9XK      -0.104000
     30 C30         -4.7400    -2.8910     1.0170 ca         1 9XK      -0.077500
     31 S31          4.9430     1.8980    -0.1980 ss         1 9XK      -0.029200
     32 H013        10.5060     0.6240     0.8300 hc         1 9XK       0.045033
     33 H011        10.6800    -0.3400    -0.6460 hc         1 9XK       0.045033
     34 H012        10.2780     1.3780    -0.7570 hc         1 9XK       0.045033
     35 H031         7.9460     2.1840    -0.2870 ha         1 9XK       0.123000
     36 H061         6.5190    -2.5800     0.1770 ha         1 9XK       0.137000
     37 H071         8.9460    -2.0180     0.0760 ha         1 9XK       0.118000
     38 H101         2.2110     1.5880    -0.1110 hn         1 9XK       0.335500
     39 H211        -3.5200     3.9840     1.1680 hc         1 9XK       0.074700
     40 H212        -2.8340     3.9960    -0.4510 hc         1 9XK       0.074700
     41 H261        -2.8900    -2.2230    -1.7840 ha         1 9XK       0.127000
     42 H271        -2.9880    -4.6920    -1.9600 ha         1 9XK       0.121000
     43 H281        -4.2130    -6.0260    -0.2470 ha         1 9XK       0.118000
     44 H291        -5.3290    -4.8720     1.6610 ha         1 9XK       0.121000
     45 H301        -5.2190    -2.4030     1.8630 ha         1 9XK       0.127000
     46 H131         0.0550     1.0190     0.8760 h1         1 9XK       0.101200
     47 H132         0.0100     0.8430    -0.8970 h1         1 9XK       0.101200
     48 H201        -5.0500     3.8370    -1.5070 h1         1 9XK       0.075700
     49 H202        -5.3200     5.0000    -0.1810 h1         1 9XK       0.075700
@<TRIPOS>BOND
     1     1     2 1   
     2     1    32 1   
     3     1    33 1   
     4     1    34 1   
     5     2     3 ar  
     6     2     7 ar  
     7     3     4 ar  
     8     3    35 1   
     9     4     5 ar  
    10     4    31 1   
    11     5     6 ar  
    12     5     8 1   
    13     6     7 ar  
    14     6    36 1   
    15     7    37 1   
    16     8     9 2   
    17     9    10 1   
    18     9    31 1   
    19    10    11 1   
    20    10    38 1   
    21    11    12 2   
    22    11    13 1   
    23    13    14 1   
    24    13    46 1   
    25    13    47 1   
    26    14    15 1   
    27    15    16 2   
    28    15    24 1   
    29    16    17 1   
    30    17    18 2   
    31    17    21 1   
    32    18    19 1   
    33    18    22 1   
    34    19    20 1   
    35    20    21 1   
    36    20    48 1   
    37    20    49 1   
    38    21    39 1   
    39    21    40 1   
    40    22    23 2   
    41    22    24 1   
    42    24    25 1   
    43    25    26 ar  
    44    25    30 ar  
    45    26    27 ar  
    46    26    41 1   
    47    27    28 ar  
    48    27    42 1   
    49    28    29 ar  
    50    28    43 1   
    51    29    30 ar  
    52    29    44 1   
    53    30    45 1   
@<TRIPOS>SUBSTRUCTURE
     1 9XK         1 TEMP              0 ****  ****    0 ROOT
