@<TRIPOS>MOLECULE
9XK
   49    53     1     0     0
SMALL
bcc


@<TRIPOS>ATOM
      1 C01          9.9290     0.1220    -0.1390 c3         1 9XK      -0.048800
      2 C02          8.4460    -0.0900    -0.0420 ca         1 9XK      -0.068300
      3 C03          7.5620     0.9670    -0.2050 ca         1 9XK      -0.088000
      4 C04          6.1990     0.7180    -0.1130 ca         1 9XK      -0.047100
      5 C05          5.6890    -0.5620     0.1410 ca         1 9XK       0.114400
      6 C06          6.5820    -1.6190     0.3080 ca         1 9XK      -0.073000
      7 C07          7.9370    -1.3730     0.2150 ca         1 9XK      -0.125000
      8 N08          4.3170    -0.6520     0.2090 nc         1 9XK      -0.542100
      9 C09          3.7810     0.4940     0.0130 cd         1 9XK       0.473800
     10 N10          2.4350     0.7730     0.0080 ns         1 9XK      -0.477400
     11 C11          1.4180    -0.1430     0.0140 c          1 9XK       0.684100
     12 O12          1.5720    -1.3410     0.0190 o          1 9XK      -0.504100
     13 C13          0.0520     0.5060     0.0120 c3         1 9XK      -0.128300
     14 S14         -1.1590    -0.8340    -0.0140 ss         1 9XK      -0.063300
     15 C15         -2.6250     0.1230     0.0060 cc         1 9XK       0.501800
     16 N16         -2.5830     1.4160     0.0340 nd         1 9XK      -0.659300
     17 C17         -3.7690     2.0640     0.0470 cd         1 9XK       0.168400
     18 C18         -4.9710     1.4330     0.0300 cc         1 9XK      -0.154600
     19 S19         -6.3660     2.4890     0.0700 ss         1 9XK      -0.195700
     20 C20         -5.2810     3.9230    -0.3140 c5         1 9XK      -0.007300
     21 C21         -3.8710     3.5540     0.1450 c5         1 9XK      -0.029200
     22 C22         -5.0530     0.0090     0.0130 c          1 9XK       0.735700
     23 O23         -6.0670    -0.6630     0.0180 o          1 9XK      -0.579500
     24 N24         -3.7840    -0.5970    -0.0070 n          1 9XK      -0.295500
     25 C25         -3.7390    -2.0270    -0.0360 ca         1 9XK       0.001600
     26 C26         -3.7170    -2.6810    -1.2590 ca         1 9XK      -0.095500
     27 C27         -3.6630    -4.0670    -1.2830 ca         1 9XK      -0.122000
     28 C28         -3.6330    -4.7830    -0.0930 ca         1 9XK      -0.109000
     29 C29         -3.6590    -4.1160     1.1250 ca         1 9XK      -0.122000
     30 C30         -3.7130    -2.7300     1.1580 ca         1 9XK      -0.095500
     31 S31          4.8810     1.8330    -0.2810 ss         1 9XK      -0.156100
     32 H013        10.4270    -0.1330     0.7980 hc         1 9XK       0.045033
     33 H011        10.3660    -0.5090    -0.9150 hc         1 9XK       0.045033
     34 H012        10.1720     1.1570    -0.3760 hc         1 9XK       0.045033
     35 H031         7.9300     1.9650    -0.4070 ha         1 9XK       0.141000
     36 H061         6.2090    -2.6160     0.5060 ha         1 9XK       0.155000
     37 H071         8.6320    -2.1950     0.3420 ha         1 9XK       0.136000
     38 H101         2.1710     1.7470    -0.0290 hn         1 9XK       0.335500
     39 H211        -3.7060     3.8450     1.1880 hc         1 9XK       0.074700
     40 H212        -3.1140     4.0580    -0.4560 hc         1 9XK       0.074700
     41 H261        -3.7390    -2.1110    -2.1780 ha         1 9XK       0.145000
     42 H271        -3.6430    -4.5870    -2.2310 ha         1 9XK       0.139000
     43 H281        -3.5910    -5.8630    -0.1150 ha         1 9XK       0.136000
     44 H291        -3.6360    -4.6750     2.0510 ha         1 9XK       0.139000
     45 H301        -3.7290    -2.1980     2.1000 ha         1 9XK       0.145000
     46 H131        -0.0760     1.1260     0.9000 h1         1 9XK       0.101200
     47 H132        -0.0680     1.1510    -0.8600 h1         1 9XK       0.101200
     48 H201        -5.3120     4.0920    -1.3900 h1         1 9XK       0.075700
     49 H202        -5.6720     4.8030     0.1900 h1         1 9XK       0.075700
@<TRIPOS>BOND
     1     1     2 1   
     2     1    32 1   
     3     1    33 1   
     4     1    34 1   
     5     2     3 ar  
     6     2     7 ar  
     7     3     4 ar  
     8     3    35 1   
     9     4     5 ar  
    10     4    31 1   
    11     5     6 ar  
    12     5     8 1   
    13     6     7 ar  
    14     6    36 1   
    15     7    37 1   
    16     8     9 2   
    17     9    10 1   
    18     9    31 1   
    19    10    11 1   
    20    10    38 1   
    21    11    12 2   
    22    11    13 1   
    23    13    14 1   
    24    13    46 1   
    25    13    47 1   
    26    14    15 1   
    27    15    16 2   
    28    15    24 1   
    29    16    17 1   
    30    17    18 2   
    31    17    21 1   
    32    18    19 1   
    33    18    22 1   
    34    19    20 1   
    35    20    21 1   
    36    20    48 1   
    37    20    49 1   
    38    21    39 1   
    39    21    40 1   
    40    22    23 2   
    41    22    24 1   
    42    24    25 1   
    43    25    26 ar  
    44    25    30 ar  
    45    26    27 ar  
    46    26    41 1   
    47    27    28 ar  
    48    27    42 1   
    49    28    29 ar  
    50    28    43 1   
    51    29    30 ar  
    52    29    44 1   
    53    30    45 1   
@<TRIPOS>SUBSTRUCTURE
     1 9XK         1 TEMP              0 ****  ****    0 ROOT
