@<TRIPOS>MOLECULE
9XL
   66    69     1     0     0
SMALL
abcg2


@<TRIPOS>ATOM
      1 C13         14.5360    12.9800    35.4400 c5         1 9XL      -0.069700
      2 C17         16.3290     8.8800    35.2930 c1         1 9XL      -0.143100
      3 C20         16.4350     5.6040    36.6710 ca         1 9XL      -0.069000
      4 C21         16.0810     4.5090    37.4430 ca         1 9XL      -0.127000
      5 C22         15.0110     4.5870    38.3210 ca         1 9XL      -0.058000
      6 C28         14.5660    10.6580    33.3120 c3         1 9XL       0.170800
      7 C02         13.8960    17.7010    40.8370 ca         1 9XL       0.256000
      8 C04         13.3380    18.5290    38.8050 ca         1 9XL       0.139900
      9 C06         14.1000    16.4480    38.8670 ca         1 9XL       0.123500
     10 C07         14.2620    16.4910    40.2700 ca         1 9XL      -0.189800
     11 C08         14.7760    15.2290    40.6730 cc         1 9XL      -0.209200
     12 C09         14.9000    14.4970    39.5310 cd         1 9XL      -0.155100
     13 C11         14.5400    14.8020    37.0520 c5         1 9XL       0.034300
     14 C12         13.8700    13.4640    36.7500 c5         1 9XL      -0.081400
     15 C14         15.0100    11.5350    35.5640 c3         1 9XL       0.196800
     16 C16         16.6310    10.0760    34.4920 c3         1 9XL       0.278900
     17 C18         16.0620     7.9280    35.9840 cg         1 9XL      -0.125000
     18 C19         15.7130     6.7950    36.7750 ca         1 9XL       0.041000
     19 C23         14.2710     5.7630    38.4240 ca         1 9XL      -0.153600
     20 C27         14.6310     6.8640    37.6560 ca         1 9XL      -0.056000
     21 C29         13.6970     9.4310    33.5780 c3         1 9XL      -0.080400
     22 C30         12.6310     9.2330    32.4990 c3         1 9XL       0.021500
     23 C32         11.8290     7.9240    32.7380 c          1 9XL       0.714000
     24 C35         15.6950    13.9500    35.1610 c5         1 9XL       0.186300
     25 C37         15.9580    14.6010    36.5170 c5         1 9XL       0.112300
     26 N03         13.4440    18.7040    40.1280 nb         1 9XL      -0.203000
     27 N05         13.6440    17.4450    38.1230 nb         1 9XL      -0.170000
     28 N10         14.4890    15.2240    38.4360 na         1 9XL      -0.169400
     29 N15         15.5500    11.0180    34.3220 n3         1 9XL      -0.758600
     30 N25         12.1940     6.7300    39.2000 nt         1 9XL      -0.599000
     31 N31         11.7430    10.3860    32.4240 n8         1 9XL      -1.018200
     32 O26         13.0840     4.9910    40.3220 o          1 9XL      -0.625100
     33 O33         12.4960     6.9070    33.0120 o          1 9XL      -0.727500
     34 O34         10.5900     7.9870    32.6080 o          1 9XL      -0.727500
     35 O36         15.2630    14.9010    34.2120 oh         1 9XL      -0.654000
     36 O38         16.7180    15.7660    36.3810 oh         1 9XL      -0.654000
     37 H1          13.8240    13.0540    34.6150 hc         1 9XL       0.102700
     38 H4          14.7440     3.7290    38.9220 ha         1 9XL       0.129000
     39 H5          15.1010    10.5160    32.3660 h1         1 9XL       0.046700
     40 H6          13.9200    11.5260    33.1600 h1         1 9XL       0.046700
     41 H7          12.9600    19.3750    38.2430 h5         1 9XL       0.053100
     42 H8          15.0200    14.9030    41.6710 ha         1 9XL       0.217000
     43 H9          15.2580    13.4860    39.4140 h4         1 9XL       0.224000
     44 H10         14.0610    15.5960    36.4770 h1         1 9XL       0.117700
     45 H11         12.7880    13.5600    36.6630 hc         1 9XL       0.057700
     46 H12         14.0600    12.7490    37.5560 hc         1 9XL       0.057700
     47 H13         14.1890    10.9200    35.9600 h1         1 9XL       0.033200
     48 H14         15.7990    11.4930    36.3230 h1         1 9XL       0.033200
     49 H15         16.9810     9.7620    33.5050 h1         1 9XL       0.056200
     50 H16         17.4770    10.5880    34.9620 h1         1 9XL       0.056200
     51 H17         14.0980     7.8030    37.7360 ha         1 9XL       0.119000
     52 H18         13.2020     9.5250    34.5500 hc         1 9XL       0.048700
     53 H19         14.3180     8.5370    33.6220 hc         1 9XL       0.048700
     54 H20         13.1650     9.0770    31.5450 h1         1 9XL       0.001700
     55 H21         16.5830    13.4160    34.7990 h1         1 9XL       0.066700
     56 H22         16.4660    13.8610    37.1550 h1         1 9XL       0.036700
     57 H24         11.3940     6.7620    39.8120 hn         1 9XL       0.317000
     58 H25         12.1390     7.2750    38.3580 hn         1 9XL       0.317000
     59 H26         12.0560    11.0290    31.7090 hn         1 9XL       0.388000
     60 H27         10.8330    10.0470    32.1410 hn         1 9XL       0.388000
     61 H30         15.9520    15.5670    34.1140 ho         1 9XL       0.453000
     62 H31         16.9960    16.0700    37.2510 ho         1 9XL       0.452000
     63 H2          17.2720     5.5420    35.9890 ha         1 9XL       0.117000
     64 C24         13.1320     5.7900    39.3990 c          1 9XL       0.620700
     65 CL1         14.0370    17.9200    42.5430 cl         1 9XL      -0.167000
     66 H3          16.6450     3.5890    37.3610 ha         1 9XL       0.111000
@<TRIPOS>BOND
     1     1    14 1   
     2     1    15 1   
     3     1    24 1   
     4     1    37 1   
     5     2    16 1   
     6     2    17 3   
     7     3     4 ar  
     8     3    18 ar  
     9     3    63 1   
    10     4     5 ar  
    11     4    66 1   
    12     5    19 ar  
    13     5    38 1   
    14     6    21 1   
    15     6    29 1   
    16     6    39 1   
    17     6    40 1   
    18     7    10 ar  
    19     7    26 ar  
    20     7    65 1   
    21     8    26 ar  
    22     8    27 ar  
    23     8    41 1   
    24     9    10 ar  
    25     9    27 ar  
    26     9    28 1   
    27    10    11 1   
    28    11    12 2   
    29    11    42 1   
    30    12    28 1   
    31    12    43 1   
    32    13    14 1   
    33    13    25 1   
    34    13    28 1   
    35    13    44 1   
    36    14    45 1   
    37    14    46 1   
    38    15    29 1   
    39    15    47 1   
    40    15    48 1   
    41    16    29 1   
    42    16    49 1   
    43    16    50 1   
    44    17    18 1   
    45    18    20 ar  
    46    19    20 ar  
    47    19    64 1   
    48    20    51 1   
    49    21    22 1   
    50    21    52 1   
    51    21    53 1   
    52    22    23 1   
    53    22    31 1   
    54    22    54 1   
    55    23    33 1   
    56    23    34 1   
    57    24    25 1   
    58    24    35 1   
    59    24    55 1   
    60    25    36 1   
    61    25    56 1   
    62    30    57 1   
    63    30    58 1   
    64    30    64 1   
    65    31    59 1   
    66    31    60 1   
    67    32    64 2   
    68    35    61 1   
    69    36    62 1   
@<TRIPOS>SUBSTRUCTURE
     1 9XL         1 TEMP              0 ****  ****    0 ROOT
