@<TRIPOS>MOLECULE
9XL
   66    69     1     0     0
SMALL
No Charge or Current Charge


@<TRIPOS>ATOM
      1 C13         14.9180    12.7460    35.8870 c5         1 9XL      -0.069700
      2 C17         16.5110     8.5210    35.3360 c1         1 9XL      -0.143100
      3 C20         16.5390     5.7270    37.5830 ca         1 9XL      -0.069000
      4 C21         16.0470     4.6630    38.3560 ca         1 9XL      -0.127000
      5 C22         14.6730     4.3670    38.3570 ca         1 9XL      -0.058000
      6 C28         14.6630    10.5900    33.6700 c3         1 9XL       0.170800
      7 C02         13.8850    18.1870    40.6190 ca         1 9XL       0.256000
      8 C04         12.2600    18.0140    39.0070 ca         1 9XL       0.139900
      9 C06         14.0940    16.6470    38.7810 ca         1 9XL       0.123500
     10 C07         14.6030    17.1960    39.9320 ca         1 9XL      -0.189800
     11 C08         15.8640    16.5840    40.2090 cc         1 9XL      -0.209200
     12 C09         16.0830    15.6640    39.1960 cd         1 9XL      -0.155100
     13 C11         14.8350    14.8760    37.0830 c5         1 9XL       0.034300
     14 C12         14.8200    13.3460    37.3310 c5         1 9XL      -0.081400
     15 C14         15.6630    11.3850    35.8590 c3         1 9XL       0.196800
     16 C16         16.8700     9.6740    34.4940 c3         1 9XL       0.278900
     17 C18         16.1420     7.5870    36.0190 cg         1 9XL      -0.125000
     18 C19         15.6540     6.4960    36.8100 ca         1 9XL       0.041000
     19 C23         13.7680     5.1300    37.5840 ca         1 9XL      -0.153600
     20 C27         14.2780     6.2000    36.8110 ca         1 9XL      -0.056000
     21 C29         13.6000     9.5980    34.2170 c3         1 9XL      -0.080400
     22 C30         12.3040     9.5070    33.3640 c3         1 9XL       0.021500
     23 C32         11.4620     8.1930    33.6910 c          1 9XL       0.714000
     24 C35         15.5930    13.8750    35.0260 c5         1 9XL       0.186300
     25 C37         16.0260    14.9380    36.0870 c5         1 9XL       0.112300
     26 N03         12.6920    18.6050    40.1480 nb         1 9XL      -0.203000
     27 N05         12.9010    17.0530    38.2960 nb         1 9XL      -0.170000
     28 N10         14.9870    15.6930    38.2940 na         1 9XL      -0.169400
     29 N15         15.8860    10.7970    34.5080 n3         1 9XL      -0.758600
     30 N25         11.4460     5.5050    36.8340 nt         1 9XL      -0.599000
     31 N31         11.5430    10.8080    33.4090 n8         1 9XL      -1.018200
     32 O26         11.8390     3.8880    38.2910 o          1 9XL      -0.625100
     33 O33         10.7630     7.7280    32.7990 o          1 9XL      -0.727500
     34 O34         11.5430     7.6840    34.8040 o          1 9XL      -0.727500
     35 O36         14.6660    14.4570    34.1060 oh         1 9XL      -0.654000
     36 O38         16.2070    16.2390    35.5080 oh         1 9XL      -0.654000
     37 H1          13.9060    12.5510    35.5170 hc         1 9XL       0.102700
     38 H4          14.3130     3.5370    38.9640 ha         1 9XL       0.129000
     39 H5          14.9640    10.2420    32.6730 h1         1 9XL       0.046700
     40 H6          14.1760    11.5600    33.5060 h1         1 9XL       0.046700
     41 H7          11.2980    18.3450    38.6210 h5         1 9XL       0.053100
     42 H8          16.5330    16.7840    41.0460 ha         1 9XL       0.217000
     43 H9          16.9300    14.9970    39.0530 h4         1 9XL       0.224000
     44 H10         13.9080    15.1740    36.5730 h1         1 9XL       0.117700
     45 H11         13.9120    13.0220    37.8510 hc         1 9XL       0.057700
     46 H12         15.6680    13.0380    37.9540 hc         1 9XL       0.057700
     47 H13         15.1070    10.6810    36.4930 h1         1 9XL       0.033200
     48 H14         16.6380    11.5380    36.3420 h1         1 9XL       0.033200
     49 H15         17.0180     9.3160    33.4660 h1         1 9XL       0.056200
     50 H16         17.8470    10.0410    34.8380 h1         1 9XL       0.056200
     51 H17         13.6150     6.8130    36.2070 ha         1 9XL       0.119000
     52 H18         13.3350     9.8550    35.2490 hc         1 9XL       0.048700
     53 H19         14.0430     8.5980    34.2390 hc         1 9XL       0.048700
     54 H20         12.6270     9.3900    32.3200 h1         1 9XL       0.001700
     55 H21         16.4730    13.4980    34.4860 h1         1 9XL       0.066700
     56 H22         16.9560    14.6200    36.5790 h1         1 9XL       0.036700
     57 H24         10.4650     5.2750    36.8470 hn         1 9XL       0.317000
     58 H25         11.7820     6.2520    36.2380 hn         1 9XL       0.317000
     59 H26         12.1300    11.5620    33.0370 hn         1 9XL       0.388000
     60 H27         10.7580    10.7570    32.7470 hn         1 9XL       0.388000
     61 H30         14.9230    15.4080    34.0940 ho         1 9XL       0.453000
     62 H31         16.3800    16.8570    36.2540 ho         1 9XL       0.452000
     63 H2          17.6040     5.9520    37.5860 ha         1 9XL       0.117000
     64 C24         12.2940     4.7880    37.6030 c          1 9XL       0.620700
     65 Cl1         14.4910    18.9220    42.0980 cl         1 9XL      -0.167000
     66 H3          16.7310     4.0670    38.9560 ha         1 9XL       0.111000
@<TRIPOS>BOND
     1     1    14 1   
     2     1    15 1   
     3     1    24 1   
     4     1    37 1   
     5     2    16 1   
     6     2    17 3   
     7     3     4 ar  
     8     3    18 ar  
     9     3    63 1   
    10     4     5 ar  
    11     4    66 1   
    12     5    19 ar  
    13     5    38 1   
    14     6    21 1   
    15     6    29 1   
    16     6    39 1   
    17     6    40 1   
    18     7    10 ar  
    19     7    26 ar  
    20     7    65 1   
    21     8    26 ar  
    22     8    27 ar  
    23     8    41 1   
    24     9    10 ar  
    25     9    27 ar  
    26     9    28 1   
    27    10    11 1   
    28    11    12 2   
    29    11    42 1   
    30    12    28 1   
    31    12    43 1   
    32    13    14 1   
    33    13    25 1   
    34    13    28 1   
    35    13    44 1   
    36    14    45 1   
    37    14    46 1   
    38    15    29 1   
    39    15    47 1   
    40    15    48 1   
    41    16    29 1   
    42    16    49 1   
    43    16    50 1   
    44    17    18 1   
    45    18    20 ar  
    46    19    20 ar  
    47    19    64 1   
    48    20    51 1   
    49    21    22 1   
    50    21    52 1   
    51    21    53 1   
    52    22    23 1   
    53    22    31 1   
    54    22    54 1   
    55    23    33 1   
    56    23    34 1   
    57    24    25 1   
    58    24    35 1   
    59    24    55 1   
    60    25    36 1   
    61    25    56 1   
    62    30    57 1   
    63    30    58 1   
    64    30    64 1   
    65    31    59 1   
    66    31    60 1   
    67    32    64 2   
    68    35    61 1   
    69    36    62 1   
@<TRIPOS>SUBSTRUCTURE
     1 9XL         1 TEMP              0 ****  ****    0 ROOT
