@<TRIPOS>MOLECULE
9XM
   95   101     1     0     0
SMALL
abcg2


@<TRIPOS>ATOM
      1 N1          51.4170   177.9620    28.6610 n          1 9XM      -0.327300
      2 N3          54.2250   179.4730    24.9830 ns         1 9XM      -0.644300
      3 C4          52.5510   178.3570    29.3200 cc         1 9XM       0.518800
      4 C5          51.4940   177.5610    27.2690 c3         1 9XM      -0.020000
      5 C6          51.1290   178.7000    26.3180 c          1 9XM       0.553100
      6 C7          51.0130   178.2710    24.8780 c3         1 9XM      -0.189400
      7 C8          50.8050   179.3380    23.8060 c6         1 9XM       0.171500
      8 C10         50.3020   181.3270    22.0100 c6         1 9XM      -0.083400
      9 C13         54.0360   179.3140    23.6250 c          1 9XM       0.680100
     10 C15         58.3470   180.5100    24.3660 c6         1 9XM       0.100500
     11 C17         57.4650   177.9660    24.3620 c6         1 9XM       0.215300
     12 C20         63.7280   177.7320    24.4160 ca         1 9XM       0.170500
     13 C21         65.5550   178.6580    23.3950 ca         1 9XM       0.231900
     14 C22         64.7490   179.6700    22.8880 ca         1 9XM       0.359900
     15 C24         63.7270   174.4880    26.3690 c5         1 9XM       0.114700
     16 C26         65.5820   173.0100    26.0510 ca         1 9XM      -0.095300
     17 C28         63.3210   173.3650    25.3810 c5         1 9XM      -0.048600
     18 N           52.6010   178.7700    30.5390 nd         1 9XM      -0.611100
     19 C           49.0190   178.9740    32.6880 ca         1 9XM       0.108000
     20 O           50.9740   179.8280    26.7270 o          1 9XM      -0.488100
     21 C1          50.2430   179.3360    33.2820 ca         1 9XM       0.020100
     22 C11         51.3340   181.7040    23.0690 c6         1 9XM      -0.064400
     23 C12         51.8530   180.4690    23.8030 c6         1 9XM       0.204300
     24 C14         57.3680   180.2210    25.4900 c6         1 9XM       0.215300
     25 C16         58.9670   178.0960    24.5230 c6         1 9XM       0.100500
     26 C18         60.6760   179.8660    24.1140 c          1 9XM       0.674100
     27 C19         62.9190   178.7950    23.9300 ca         1 9XM       0.518900
     28 C2          51.4190   179.2650    32.5640 ca         1 9XM      -0.073000
     29 C25         64.9800   173.9360    27.0800 c5         1 9XM      -0.048600
     30 C27         64.6330   172.6860    25.0780 ca         1 9XM      -0.095300
     31 C29         64.9620   171.8400    24.0280 ca         1 9XM      -0.093000
     32 C3          51.4080   178.8290    31.2320 ca         1 9XM       0.187400
     33 C30         66.2540   171.3160    23.9590 ca         1 9XM      -0.109500
     34 C31         67.1990   171.6370    24.9320 ca         1 9XM      -0.109500
     35 C32         66.8670   172.4880    25.9860 ca         1 9XM      -0.093000
     36 C33         50.1570   178.0210    29.2540 c          1 9XM       0.579600
     37 C34         50.1820   178.4660    30.6440 ca         1 9XM      -0.184600
     38 C35         48.9960   178.5460    31.3770 ca         1 9XM      -0.032000
     39 C9          49.0910   180.6370    22.6590 c6         1 9XM       0.159800
     40 N2          49.4890   179.9600    23.9060 n7         1 9XM      -0.864400
     41 N4          56.8040   178.8630    25.3230 n3         1 9XM      -0.816500
     42 N5          59.3840   179.4860    24.3110 n          1 9XM      -0.435800
     43 N6          61.5820   178.8140    24.2460 ns         1 9XM      -0.343900
     44 N7          65.0270   177.6950    24.1410 nb         1 9XM      -0.618000
     45 N8          63.4490   179.7370    23.1470 nb         1 9XM      -0.667000
     46 N9          64.0780   175.7100    25.6550 ns         1 9XM      -0.463900
     47 O1          53.0290   179.9920    23.0720 os         1 9XM      -0.462100
     48 O2          54.7520   178.6150    22.9430 o          1 9XM      -0.474000
     49 O3          55.0280   177.1890    25.6910 o          1 9XM      -0.560000
     50 O4          55.2000   179.1850    27.1790 o          1 9XM      -0.560000
     51 O5          61.0040   181.0260    23.8870 o          1 9XM      -0.587100
     52 O6          61.9550   176.4770    25.4440 o          1 9XM      -0.662100
     53 O7          49.1520   177.7180    28.6240 o          1 9XM      -0.534000
     54 S           55.3310   178.5770    25.8820 s6         1 9XM       1.370900
     55 BR          50.3190   179.9260    35.0860 br         1 9XM      -0.065100
     56 CL          47.5260   179.0560    33.5700 cl         1 9XM      -0.169000
     57 H1          53.8220   180.2510    25.4840 hn         1 9XM       0.350500
     58 H2          53.4610   178.3010    28.7340 h5         1 9XM       0.069800
     59 H3          50.8340   176.7120    27.0950 h1         1 9XM       0.089700
     60 H4          52.5130   177.2420    27.0440 h1         1 9XM       0.089700
     61 H5          50.1820   177.5580    24.8330 hc         1 9XM       0.076200
     62 H6          51.8970   177.6680    24.6450 hc         1 9XM       0.076200
     63 H7          50.9260   178.8130    22.8460 h1         1 9XM       0.047700
     64 H8          49.9730   182.2110    21.4630 hc         1 9XM       0.052200
     65 H9          50.7660   180.6600    21.2800 hc         1 9XM       0.052200
     66 H10         57.8170   180.5720    23.4110 h1         1 9XM       0.068450
     67 H11         58.8210   181.4700    24.5470 h1         1 9XM       0.068450
     68 H12         57.1720   176.9440    24.5810 h1         1 9XM       0.072200
     69 H13         57.1590   178.2020    23.3420 h1         1 9XM       0.072200
     70 H14         66.6170   178.6180    23.1880 h4         1 9XM       0.037100
     71 H15         65.1640   180.4400    22.2460 h4         1 9XM       0.036100
     72 H16         62.9250   174.7280    27.0630 h1         1 9XM       0.083700
     73 H17         62.6330   172.6710    25.8740 hc         1 9XM       0.066450
     74 H18         62.8140   173.7600    24.5010 hc         1 9XM       0.066450
     75 H19         50.8830   182.3720    23.8050 hc         1 9XM       0.066200
     76 H20         52.1820   182.2320    22.6310 hc         1 9XM       0.066200
     77 H21         52.1330   180.7500    24.8120 h1         1 9XM       0.064700
     78 H22         57.8640   180.2880    26.4590 h1         1 9XM       0.072200
     79 H23         56.5700   180.9630    25.4570 h1         1 9XM       0.072200
     80 H24         59.4410   177.4470    23.7860 h1         1 9XM       0.068450
     81 H25         59.2560   177.7560    25.5220 h1         1 9XM       0.068450
     82 H26         52.3590   179.5440    33.0160 ha         1 9XM       0.153000
     83 H27         65.6540   174.7280    27.4080 hc         1 9XM       0.066450
     84 H28         64.6790   173.3760    27.9700 hc         1 9XM       0.066450
     85 H29         64.2310   171.5910    23.2680 ha         1 9XM       0.115500
     86 H30         66.5250   170.6600    23.1420 ha         1 9XM       0.114000
     87 H31         68.2000   171.2300    24.8640 ha         1 9XM       0.114000
     88 H32         67.6050   172.7420    26.7370 ha         1 9XM       0.115500
     89 H33         48.0620   178.2690    30.9120 ha         1 9XM       0.152000
     90 H34         48.3280   181.3790    22.9090 h1         1 9XM       0.039700
     91 H35         48.6470   179.9350    21.9420 h1         1 9XM       0.039700
     92 H36         48.7970   179.2670    24.1580 hn         1 9XM       0.425000
     93 H38         61.3040   177.9730    24.7550 hn         1 9XM       0.208000
     94 H39         65.0360   175.8740    25.3760 hn         1 9XM       0.349500
     95 C23         63.1730   176.5880    25.2180 c          1 9XM       0.520600
@<TRIPOS>BOND
     1     1     3 1   
     2     1     4 1   
     3     1    36 1   
     4     2     9 1   
     5     2    54 1   
     6     2    57 1   
     7     3    18 2   
     8     3    58 1   
     9     4     5 1   
    10     4    59 1   
    11     4    60 1   
    12     5     6 1   
    13     5    20 2   
    14     6     7 1   
    15     6    61 1   
    16     6    62 1   
    17     7    23 1   
    18     7    40 1   
    19     7    63 1   
    20     8    22 1   
    21     8    39 1   
    22     8    64 1   
    23     8    65 1   
    24     9    47 1   
    25     9    48 2   
    26    10    24 1   
    27    10    42 1   
    28    10    66 1   
    29    10    67 1   
    30    11    25 1   
    31    11    41 1   
    32    11    68 1   
    33    11    69 1   
    34    12    27 ar  
    35    12    44 ar  
    36    12    95 1   
    37    13    14 ar  
    38    13    44 ar  
    39    13    70 1   
    40    14    45 ar  
    41    14    71 1   
    42    15    17 1   
    43    15    29 1   
    44    15    46 1   
    45    15    72 1   
    46    16    29 1   
    47    16    30 ar  
    48    16    35 ar  
    49    17    30 1   
    50    17    73 1   
    51    17    74 1   
    52    18    32 1   
    53    19    21 ar  
    54    19    38 ar  
    55    19    56 1   
    56    21    28 ar  
    57    21    55 1   
    58    22    23 1   
    59    22    75 1   
    60    22    76 1   
    61    23    47 1   
    62    23    77 1   
    63    24    41 1   
    64    24    78 1   
    65    24    79 1   
    66    25    42 1   
    67    25    80 1   
    68    25    81 1   
    69    26    42 1   
    70    26    43 1   
    71    26    51 2   
    72    27    43 1   
    73    27    45 ar  
    74    28    32 ar  
    75    28    82 1   
    76    29    83 1   
    77    29    84 1   
    78    30    31 ar  
    79    31    33 ar  
    80    31    85 1   
    81    32    37 ar  
    82    33    34 ar  
    83    33    86 1   
    84    34    35 ar  
    85    34    87 1   
    86    35    88 1   
    87    36    37 1   
    88    36    53 2   
    89    37    38 ar  
    90    38    89 1   
    91    39    40 1   
    92    39    90 1   
    93    39    91 1   
    94    40    92 1   
    95    41    54 1   
    96    43    93 1   
    97    46    94 1   
    98    46    95 1   
    99    49    54 2   
   100    50    54 2   
   101    52    95 2   
@<TRIPOS>SUBSTRUCTURE
     1 9XM         1 TEMP              0 ****  ****    0 ROOT
