@<TRIPOS>MOLECULE
9XM
   95   101     1     0     0
SMALL
No Charge or Current Charge


@<TRIPOS>ATOM
      1 N1          52.6860   177.9820    27.9400 n          1 9XM      -0.327300
      2 N3          53.0010   178.2750    22.5240 ns         1 9XM      -0.644300
      3 C4          53.6760   177.0540    27.6230 cc         1 9XM       0.518800
      4 C5          51.4540   178.0680    27.0920 c3         1 9XM      -0.020000
      5 C6          51.7170   178.6300    25.6830 c          1 9XM       0.553100
      6 C7          50.5560   178.5550    24.6810 c3         1 9XM      -0.189400
      7 C8          50.2230   179.8770    23.9350 c6         1 9XM       0.171500
      8 C10         49.6550   182.3960    22.8930 c6         1 9XM      -0.083400
      9 C13         52.1200   178.5660    21.5400 c          1 9XM       0.680100
     10 C15         57.1050   179.4300    23.2530 c6         1 9XM       0.100500
     11 C17         56.3010   176.7070    23.9490 c6         1 9XM       0.215300
     12 C20         62.0020   177.7920    26.6950 ca         1 9XM       0.170500
     13 C21         63.2890   179.4480    27.6960 ca         1 9XM       0.231900
     14 C22         62.3520   180.4280    27.2830 ca         1 9XM       0.359900
     15 C24         62.6730   174.0280    26.4920 c5         1 9XM       0.114700
     16 C26         64.9190   173.4560    27.0580 ca         1 9XM      -0.095300
     17 C28         63.5060   173.8570    25.1570 c5         1 9XM      -0.048600
     18 N           54.8520   176.9020    28.2400 nd         1 9XM      -0.611100
     19 C           55.6900   179.5120    31.4670 ca         1 9XM       0.108000
     20 O           52.8230   179.0420    25.3560 o          1 9XM      -0.488100
     21 C1          56.6200   178.5390    31.0540 ca         1 9XM       0.020100
     22 C11         51.1350   181.9800    22.7160 c6         1 9XM      -0.064400
     23 C12         51.3650   180.4670    23.0030 c6         1 9XM       0.204300
     24 C14         56.0250   178.6200    22.4930 c6         1 9XM       0.215300
     25 C16         57.4080   177.4220    24.7730 c6         1 9XM       0.100500
     26 C18         59.2000   179.2360    24.6180 c          1 9XM       0.674100
     27 C19         61.0790   178.7990    26.2570 ca         1 9XM       0.518900
     28 C2          56.3090   177.6850    29.9800 ca         1 9XM      -0.073000
     29 C25         63.5270   173.3440    27.6320 c5         1 9XM      -0.048600
     30 C27         64.9080   173.7370    25.7050 ca         1 9XM      -0.095300
     31 C29         66.1060   173.8690    24.9850 ca         1 9XM      -0.093000
     32 C3          55.0780   177.7870    29.3030 ca         1 9XM       0.187400
     33 C30         67.3300   173.7120    25.6650 ca         1 9XM      -0.109500
     34 C31         67.3420   173.4230    27.0460 ca         1 9XM      -0.109500
     35 C32         66.1290   173.2920    27.7520 ca         1 9XM      -0.093000
     36 C33         52.8630   178.8790    28.9930 c          1 9XM       0.579600
     37 C34         54.1540   178.7610    29.7170 ca         1 9XM      -0.184600
     38 C35         54.4590   179.6210    30.7990 ca         1 9XM      -0.032000
     39 C9          49.1400   182.0880    24.3270 c6         1 9XM       0.159800
     40 N2          49.7460   180.8670    24.9300 n7         1 9XM      -0.864400
     41 N4          55.3230   177.6620    23.3800 n3         1 9XM      -0.816500
     42 N5          58.0230   178.6310    24.1250 n          1 9XM      -0.435800
     43 N6          59.8930   178.5110    25.5570 ns         1 9XM      -0.343900
     44 N7          63.1290   178.1250    27.4160 nb         1 9XM      -0.618000
     45 N8          61.2360   180.1130    26.5720 nb         1 9XM      -0.667000
     46 N9          62.7670   175.4660    26.7960 ns         1 9XM      -0.463900
     47 O1          51.4450   179.7470    21.7420 os         1 9XM      -0.462100
     48 O2          51.9420   177.8790    20.5520 o          1 9XM      -0.474000
     49 O3          54.3240   176.3760    21.3850 o          1 9XM      -0.560000
     50 O4          53.3350   176.1130    23.7320 o          1 9XM      -0.560000
     51 O5          59.5740   180.3230    24.2000 o          1 9XM      -0.587100
     52 O6          60.7620   175.8970    25.7970 o          1 9XM      -0.662100
     53 O7          52.0220   179.7160    29.2980 o          1 9XM      -0.534000
     54 S           53.9470   176.9340    22.6850 s6         1 9XM       1.370900
     55 Br          58.3210   178.3560    31.9280 br         1 9XM      -0.065100
     56 Cl          56.0420   180.6050    32.8080 cl         1 9XM      -0.169000
     57 H1          53.0820   178.8520    23.3410 hn         1 9XM       0.350500
     58 H2          53.4290   176.4150    26.7810 h5         1 9XM       0.069800
     59 H3          50.6810   178.6920    27.5630 h1         1 9XM       0.089700
     60 H4          51.0260   177.0620    26.9720 h1         1 9XM       0.089700
     61 H5          49.6640   178.1940    25.2070 hc         1 9XM       0.076200
     62 H6          50.7950   177.7720    23.9550 hc         1 9XM       0.076200
     63 H7          49.3700   179.6410    23.2790 h1         1 9XM       0.047700
     64 H8          49.5300   183.4660    22.6780 hc         1 9XM       0.052200
     65 H9          49.0370   181.8620    22.1570 hc         1 9XM       0.052200
     66 H10         57.6920   179.9940    22.5140 h1         1 9XM       0.068450
     67 H11         56.5940   180.1680    23.8880 h1         1 9XM       0.068450
     68 H12         55.8050   175.9800    24.6110 h1         1 9XM       0.072200
     69 H13         56.7800   176.1270    23.1450 h1         1 9XM       0.072200
     70 H14         64.1740   179.7280    28.2660 h4         1 9XM       0.037100
     71 H15         62.5000   181.4780    27.5290 h4         1 9XM       0.036100
     72 H16         61.6420   173.6500    26.4320 h1         1 9XM       0.083700
     73 H17         63.2130   172.9430    24.6280 hc         1 9XM       0.066450
     74 H18         63.3790   174.6910    24.4570 hc         1 9XM       0.066450
     75 H19         51.7510   182.5700    23.4090 hc         1 9XM       0.066200
     76 H20         51.4860   182.2350    21.7060 hc         1 9XM       0.066200
     77 H21         52.3390   180.4360    23.5020 h1         1 9XM       0.064700
     78 H22         55.3250   179.3390    22.0420 h1         1 9XM       0.072200
     79 H23         56.5080   178.0870    21.6600 h1         1 9XM       0.072200
     80 H24         58.1820   176.6770    25.0010 h1         1 9XM       0.068450
     81 H25         56.9670   177.7380    25.7300 h1         1 9XM       0.068450
     82 H26         57.0310   176.9360    29.6650 ha         1 9XM       0.153000
     83 H27         63.4140   173.8300    28.6080 hc         1 9XM       0.066450
     84 H28         63.2410   172.2930    27.7580 hc         1 9XM       0.066450
     85 H29         66.0910   174.0880    23.9190 ha         1 9XM       0.115500
     86 H30         68.2690   173.8110    25.1230 ha         1 9XM       0.114000
     87 H31         68.2890   173.2990    27.5680 ha         1 9XM       0.114000
     88 H32         66.1310   173.0660    28.8160 ha         1 9XM       0.115500
     89 H33         53.7470   180.3790    31.1210 ha         1 9XM       0.152000
     90 H34         49.3520   182.9420    24.9880 h1         1 9XM       0.039700
     91 H35         48.0460   181.9740    24.2890 h1         1 9XM       0.039700
     92 H36         49.0490   180.4370    25.5520 hn         1 9XM       0.425000
     93 H38         59.5420   177.5780    25.7230 hn         1 9XM       0.208000
     94 H39         63.5600   175.9020    27.2570 hn         1 9XM       0.349500
     95 C23         61.7610   176.3180    26.3730 c          1 9XM       0.520600
@<TRIPOS>BOND
     1     1     3 1   
     2     1     4 1   
     3     1    36 1   
     4     2     9 1   
     5     2    54 1   
     6     2    57 1   
     7     3    18 2   
     8     3    58 1   
     9     4     5 1   
    10     4    59 1   
    11     4    60 1   
    12     5     6 1   
    13     5    20 2   
    14     6     7 1   
    15     6    61 1   
    16     6    62 1   
    17     7    23 1   
    18     7    40 1   
    19     7    63 1   
    20     8    22 1   
    21     8    39 1   
    22     8    64 1   
    23     8    65 1   
    24     9    47 1   
    25     9    48 2   
    26    10    24 1   
    27    10    42 1   
    28    10    66 1   
    29    10    67 1   
    30    11    25 1   
    31    11    41 1   
    32    11    68 1   
    33    11    69 1   
    34    12    27 ar  
    35    12    44 ar  
    36    12    95 1   
    37    13    14 ar  
    38    13    44 ar  
    39    13    70 1   
    40    14    45 ar  
    41    14    71 1   
    42    15    17 1   
    43    15    29 1   
    44    15    46 1   
    45    15    72 1   
    46    16    29 1   
    47    16    30 ar  
    48    16    35 ar  
    49    17    30 1   
    50    17    73 1   
    51    17    74 1   
    52    18    32 1   
    53    19    21 ar  
    54    19    38 ar  
    55    19    56 1   
    56    21    28 ar  
    57    21    55 1   
    58    22    23 1   
    59    22    75 1   
    60    22    76 1   
    61    23    47 1   
    62    23    77 1   
    63    24    41 1   
    64    24    78 1   
    65    24    79 1   
    66    25    42 1   
    67    25    80 1   
    68    25    81 1   
    69    26    42 1   
    70    26    43 1   
    71    26    51 2   
    72    27    43 1   
    73    27    45 ar  
    74    28    32 ar  
    75    28    82 1   
    76    29    83 1   
    77    29    84 1   
    78    30    31 ar  
    79    31    33 ar  
    80    31    85 1   
    81    32    37 ar  
    82    33    34 ar  
    83    33    86 1   
    84    34    35 ar  
    85    34    87 1   
    86    35    88 1   
    87    36    37 1   
    88    36    53 2   
    89    37    38 ar  
    90    38    89 1   
    91    39    40 1   
    92    39    90 1   
    93    39    91 1   
    94    40    92 1   
    95    41    54 1   
    96    43    93 1   
    97    46    94 1   
    98    46    95 1   
    99    49    54 2   
   100    50    54 2   
   101    52    95 2   
@<TRIPOS>SUBSTRUCTURE
     1 9XM         1 TEMP              0 ****  ****    0 ROOT
