@<TRIPOS>MOLECULE
9XN
    9     8     1     0     0
SMALL
No Charge or Current Charge


@<TRIPOS>ATOM
      1 O1           1.0390     0.6080    -1.3050 oh         1 9XN      -0.490400
      2 O4           0.7210     0.7110     1.1490 oh         1 9XN      -0.490400
      3 P2           0.1430    -0.0080    -0.1450 p5         1 9XN       1.101100
      4 S3          -1.7730    -0.0560    -0.4010 s          1 9XN      -0.562000
      5 N5           0.7310    -1.5070     0.0100 n8         1 9XN      -1.084300
      6 H1           1.9490     0.4340    -1.0150 ho         1 9XN       0.282500
      7 H3           1.2720    -1.4620     0.8740 hn         1 9XN       0.480500
      8 H4          -0.0770    -2.0760     0.2590 hn         1 9XN       0.480500
      9 H5           0.4510     1.6410     1.0600 ho         1 9XN       0.282500
@<TRIPOS>BOND
     1     1     3 1   
     2     1     6 1   
     3     2     3 1   
     4     2     9 1   
     5     3     4 2   
     6     3     5 1   
     7     5     7 1   
     8     5     8 1   
@<TRIPOS>SUBSTRUCTURE
     1 9XN         1 TEMP              0 ****  ****    0 ROOT
