@<TRIPOS>MOLECULE
9XN
    9     8     1     0     0
SMALL
bcc


@<TRIPOS>ATOM
      1 O1           0.8120     0.3920    -1.4730 oh         1 9XN      -0.691400
      2 O4           0.8880     0.9540     1.0650 oh         1 9XN      -0.691400
      3 P2           0.1720     0.0400    -0.0450 p5         1 9XN       1.101100
      4 S3          -1.7480     0.2820    -0.1330 s          1 9XN      -0.562000
      5 N5           0.8610    -1.4240     0.3300 n8         1 9XN      -0.973900
      6 H1           1.7620     0.2170    -1.5290 ho         1 9XN       0.483500
      7 H3           0.7140    -1.7360     1.2820 hn         1 9XN       0.425300
      8 H4           0.6320    -2.1700    -0.3150 hn         1 9XN       0.425300
      9 H5           0.3630     1.7300     1.3040 ho         1 9XN       0.483500
@<TRIPOS>BOND
     1     1     3 1   
     2     1     6 1   
     3     2     3 1   
     4     2     9 1   
     5     3     4 2   
     6     3     5 1   
     7     5     7 1   
     8     5     8 1   
@<TRIPOS>SUBSTRUCTURE
     1 9XN         1 TEMP              0 ****  ****    0 ROOT
