@<TRIPOS>MOLECULE
9XO
   70    75     1     0     0
SMALL
No Charge or Current Charge


@<TRIPOS>ATOM
      1 C10         19.2430    -3.8820    22.0480 cc         1 9XO       0.458900
      2 C13         20.5340    -0.5250    20.8410 c6         1 9XO       0.207300
      3 C15         20.2630     0.6450    18.5830 ca         1 9XO       0.387900
      4 C17         19.7900     1.7840    16.6420 ca         1 9XO       0.165400
      5 C20         21.7890     5.1140    16.7400 c3         1 9XO      -0.117100
      6 C24         19.4710     4.6040    15.7870 ca         1 9XO      -0.092300
      7 C26         17.4440     4.7210    14.3960 ca         1 9XO      -0.149500
      8 C01         18.5310     1.2790    28.2400 c3         1 9XO       0.078900
      9 C04         18.3640    -2.2220    27.9060 cc         1 9XO       0.252900
     10 C05         18.6130    -1.9180    26.5590 cc         1 9XO      -0.132800
     11 C06         18.7400    -2.8420    25.4690 cc         1 9XO      -0.046200
     12 C07         18.6270    -4.2060    25.6040 cd         1 9XO      -0.159100
     13 C09         19.0390    -3.6330    23.4200 cc         1 9XO      -0.250000
     14 C12         20.7110    -1.9720    21.4020 c6         1 9XO       0.197300
     15 C18         20.6790     2.8160    17.0040 ca         1 9XO      -0.248300
     16 C19         20.8930     4.0220    16.0670 c3         1 9XO       0.324800
     17 C25         18.7350     4.2190    14.6350 ca         1 9XO      -0.077000
     18 C27         16.8570     5.6040    15.3090 ca         1 9XO       0.166000
     19 C29         17.5480     5.9780    16.4670 ca         1 9XO      -0.149500
     20 C30         18.8400     5.4770    16.7100 ca         1 9XO      -0.077000
     21 C31         21.3530     2.6430    18.2330 ca         1 9XO       0.165400
     22 C33         18.8850    -1.4280    19.1640 c6         1 9XO       0.207300
     23 C34         19.0870    -2.8540    19.7700 c6         1 9XO       0.197300
     24 C36         18.9560    -6.1090    22.5140 cd         1 9XO       0.133900
     25 C38         18.9810    -2.4810    24.1700 cd         1 9XO      -0.199000
     26 C39         18.7150    -0.5630    26.4700 cd         1 9XO      -0.160000
     27 F28         15.6150     6.0830    15.0810 f          1 9XO      -0.184000
     28 N02         18.5200    -0.1180    27.7840 na         1 9XO       0.117800
     29 N03         18.3000    -1.1580    28.6820 nd         1 9XO      -0.523800
     30 N08         18.8090    -4.6470    24.3020 na         1 9XO       0.272900
     31 N11         19.4890    -2.8110    21.2110 nh         1 9XO      -0.779300
     32 N14         20.0430    -0.4890    19.4130 nh         1 9XO      -0.782300
     33 N16         19.5800     0.7080    17.4230 nb         1 9XO      -0.250000
     34 N21         21.5530     3.5450    14.8020 n3         1 9XO      -0.736600
     35 N32         21.1450     1.5690    19.0170 nb         1 9XO      -0.250000
     36 N35         19.1970    -5.1060    21.5610 nd         1 9XO      -0.317000
     37 N37         18.7680    -5.9450    23.8410 nc         1 9XO      -0.299800
     38 H1          21.5070    -0.0220    20.9420 h1         1 9XO       0.076450
     39 H2          19.8270     0.0130    21.4890 h1         1 9XO       0.076450
     40 H3          19.2380     1.8050    15.7040 h4         1 9XO       0.027600
     41 H4          21.4500     5.3620    17.7500 hc         1 9XO       0.044367
     42 H5          22.8300     4.7860    16.8270 hc         1 9XO       0.044367
     43 H6          21.7790     6.0430    16.1570 hc         1 9XO       0.044367
     44 H7          22.4930     1.7700    15.5800 h1         1 9XO       0.034367
     45 H8          23.0900     2.2970    14.0050 h1         1 9XO       0.034367
     46 H9          23.5660     3.1860    15.4630 h1         1 9XO       0.034367
     47 H10         16.8970     4.4210    13.5050 ha         1 9XO       0.132500
     48 H11         19.3240     1.4150    28.9860 h1         1 9XO       0.055700
     49 H12         18.7170     1.9460    27.3890 h1         1 9XO       0.055700
     50 H13         17.5620     1.5260    28.6890 h1         1 9XO       0.055700
     51 H14         18.2270    -3.2010    28.3470 h4         1 9XO       0.038100
     52 H15         18.4380    -4.8580    26.4460 h4         1 9XO       0.236000
     53 H16         21.5620    -2.4390    20.8840 h1         1 9XO       0.071950
     54 H17         20.9930    -1.9100    22.4630 h1         1 9XO       0.071950
     55 H18         20.9540     5.2540    13.6350 h1         1 9XO       0.034367
     56 H19         22.6670     5.2380    14.1030 h1         1 9XO       0.034367
     57 H20         22.0830     4.1550    12.8260 h1         1 9XO       0.034367
     58 H21         19.1570     3.5200    13.9180 ha         1 9XO       0.124500
     59 H22         17.0800     6.6500    17.1820 ha         1 9XO       0.132500
     60 H23         19.3310     5.7710    17.6330 ha         1 9XO       0.124500
     61 H24         22.0800     3.3580    18.6110 h4         1 9XO       0.027600
     62 H25         17.9660    -0.9990    19.5910 h1         1 9XO       0.076450
     63 H26         18.7030    -1.5620    18.0870 h1         1 9XO       0.076450
     64 H27         18.1510    -3.4190    19.6450 h1         1 9XO       0.071950
     65 H28         19.8570    -3.3770    19.1830 h1         1 9XO       0.071950
     66 H29         18.9230    -7.1180    22.1230 h5         1 9XO       0.053100
     67 H30         19.0930    -1.4660    23.7970 ha         1 9XO       0.197000
     68 H31         18.9000     0.0990    25.6330 h4         1 9XO       0.149000
     69 C23         21.8250     4.6050    13.7930 c3         1 9XO       0.153100
     70 C22         22.7340     2.6570    14.9800 c3         1 9XO       0.153100
@<TRIPOS>BOND
     1     1    13 1   
     2     1    31 1   
     3     1    36 2   
     4     2    14 1   
     5     2    32 1   
     6     2    38 1   
     7     2    39 1   
     8     3    32 1   
     9     3    33 ar  
    10     3    35 ar  
    11     4    15 ar  
    12     4    33 ar  
    13     4    40 1   
    14     5    16 1   
    15     5    41 1   
    16     5    42 1   
    17     5    43 1   
    18     6    16 1   
    19     6    17 ar  
    20     6    20 ar  
    21     7    17 ar  
    22     7    18 ar  
    23     7    47 1   
    24     8    28 1   
    25     8    48 1   
    26     8    49 1   
    27     8    50 1   
    28     9    10 1   
    29     9    29 2   
    30     9    51 1   
    31    10    11 1   
    32    10    26 2   
    33    11    12 2   
    34    11    25 1   
    35    12    30 1   
    36    12    52 1   
    37    13    25 2   
    38    13    30 1   
    39    14    31 1   
    40    14    53 1   
    41    14    54 1   
    42    15    16 1   
    43    15    21 ar  
    44    16    34 1   
    45    17    58 1   
    46    18    19 ar  
    47    18    27 1   
    48    19    20 ar  
    49    19    59 1   
    50    20    60 1   
    51    21    35 ar  
    52    21    61 1   
    53    22    23 1   
    54    22    32 1   
    55    22    62 1   
    56    22    63 1   
    57    23    31 1   
    58    23    64 1   
    59    23    65 1   
    60    24    36 1   
    61    24    37 2   
    62    24    66 1   
    63    25    67 1   
    64    26    28 1   
    65    26    68 1   
    66    28    29 1   
    67    30    37 1   
    68    34    69 1   
    69    34    70 1   
    70    44    70 1   
    71    45    70 1   
    72    46    70 1   
    73    55    69 1   
    74    56    69 1   
    75    57    69 1   
@<TRIPOS>SUBSTRUCTURE
     1 9XO         1 TEMP              0 ****  ****    0 ROOT
