@<TRIPOS>MOLECULE
9XO
   70    75     1     0     0
SMALL
abcg2


@<TRIPOS>ATOM
      1 C10         19.1890    -3.4060    21.8540 cc         1 9XO       0.458900
      2 C13         19.2980     0.0680    21.0690 c6         1 9XO       0.207300
      3 C15         19.4530     0.9860    18.7810 ca         1 9XO       0.387900
      4 C17         19.6420     1.7560    16.6420 ca         1 9XO       0.165400
      5 C20         21.6540     5.0360    16.7410 c3         1 9XO      -0.117100
      6 C24         19.5790     4.5070    15.3820 ca         1 9XO      -0.092300
      7 C26         17.8640     4.4010    13.6600 ca         1 9XO      -0.149500
      8 C01         19.4460     0.5010    29.1520 c3         1 9XO       0.078900
      9 C04         18.8330    -2.7910    28.0940 cc         1 9XO       0.252900
     10 C05         19.0720    -2.2420    26.8130 cc         1 9XO      -0.132800
     11 C06         19.0490    -2.9090    25.5230 cc         1 9XO      -0.046200
     12 C07         18.8290    -4.2670    25.3020 cd         1 9XO      -0.159100
     13 C09         19.1470    -3.2930    23.2850 cc         1 9XO      -0.250000
     14 C12         20.1560    -1.1370    21.4440 c6         1 9XO       0.197300
     15 C18         20.3530     2.8830    17.0560 ca         1 9XO      -0.248300
     16 C19         20.8430     3.9260    16.0480 c3         1 9XO       0.324800
     17 C25         19.0410     3.9290    14.2300 ca         1 9XO      -0.077000
     18 C27         17.2220     5.4650    14.2630 ca         1 9XO       0.166000
     19 C29         17.7110     6.0640    15.4070 ca         1 9XO      -0.149500
     20 C30         18.8910     5.5760    15.9590 ca         1 9XO      -0.077000
     21 C31         20.5450     2.9610    18.4290 ca         1 9XO       0.165400
     22 C33         18.3930    -1.2120    19.1980 c6         1 9XO       0.207300
     23 C34         19.2430    -2.4190    19.6030 c6         1 9XO       0.197300
     24 C36         18.6340    -5.6340    22.0790 cd         1 9XO       0.133900
     25 C38         19.2410    -2.3030    24.2620 cd         1 9XO      -0.199000
     26 C39         19.3410    -0.9050    27.0730 cd         1 9XO      -0.160000
     27 F28         16.0730     5.9400    13.7110 f          1 9XO      -0.184000
     28 N02         19.2550    -0.7290    28.4090 na         1 9XO       0.117800
     29 N03         18.9450    -1.8720    29.0510 nd         1 9XO      -0.523800
     30 N08         18.8800    -4.4880    23.9670 na         1 9XO       0.272900
     31 N11         19.4960    -2.3730    21.0420 nh         1 9XO      -0.779300
     32 N14         19.0050     0.0310    19.6430 nh         1 9XO      -0.782300
     33 N16         19.1980     0.8180    17.4650 nb         1 9XO      -0.250000
     34 N21         21.6560     3.2260    15.0160 n3         1 9XO      -0.736600
     35 N32         20.1080     2.0440    19.2900 nb         1 9XO      -0.250000
     36 N35         18.8900    -4.5790    21.2860 nd         1 9XO      -0.317000
     37 N37         18.6280    -5.6910    23.3830 nc         1 9XO      -0.299800
     38 H1          19.8180     0.9890    21.3060 h1         1 9XO       0.076450
     39 H2          18.3580     0.0350    21.6280 h1         1 9XO       0.076450
     40 H3          19.4310     1.6020    15.5910 h4         1 9XO       0.027600
     41 H4          21.1070     5.5060    17.5550 hc         1 9XO       0.044367
     42 H5          22.5760     4.6310    17.1570 hc         1 9XO       0.044367
     43 H6          21.9100     5.8140    16.0230 hc         1 9XO       0.044367
     44 H7          22.3530     1.6710    16.2610 h1         1 9XO       0.034367
     45 H8          23.1780     1.8440    14.7100 h1         1 9XO       0.034367
     46 H9          23.5340     2.9720    16.0250 h1         1 9XO       0.034367
     47 H10         17.4550     3.9540    12.7640 ha         1 9XO       0.132500
     48 H11         20.2450     0.3730    29.8820 h1         1 9XO       0.055700
     49 H12         19.7160     1.2880    28.4530 h1         1 9XO       0.055700
     50 H13         18.5250     0.7730    29.6670 h1         1 9XO       0.055700
     51 H14         18.5880    -3.8110    28.3490 h4         1 9XO       0.038100
     52 H15         18.6280    -5.0760    25.9820 h4         1 9XO       0.236000
     53 H16         21.1050    -1.0780    20.9020 h1         1 9XO       0.071950
     54 H17         20.3840    -1.1450    22.5000 h1         1 9XO       0.071950
     55 H18         21.4170     4.7780    13.6070 h1         1 9XO       0.034367
     56 H19         23.0320     4.7210    14.3320 h1         1 9XO       0.034367
     57 H20         22.5450     3.4990    13.1490 h1         1 9XO       0.034367
     58 H21         19.5560     3.1020    13.7640 ha         1 9XO       0.124500
     59 H22         17.1820     6.8940    15.8560 ha         1 9XO       0.132500
     60 H23         19.2610     6.0460    16.8590 ha         1 9XO       0.124500
     61 H24         21.0770     3.7940    18.8720 h4         1 9XO       0.027600
     62 H25         17.4040    -1.3040    19.6570 h1         1 9XO       0.076450
     63 H26         18.2770    -1.1890    18.1200 h1         1 9XO       0.076450
     64 H27         18.7260    -3.3400    19.3590 h1         1 9XO       0.071950
     65 H28         20.1990    -2.3960    19.0710 h1         1 9XO       0.071950
     66 H29         18.4160    -6.5720    21.5790 h5         1 9XO       0.053100
     67 H30         19.3980    -1.2510    24.1080 ha         1 9XO       0.197000
     68 H31         19.5860    -0.0880    26.4150 h4         1 9XO       0.149000
     69 C23         22.1890     4.1090    13.9810 c3         1 9XO       0.153100
     70 C22         22.7320     2.3930    15.5410 c3         1 9XO       0.153100
@<TRIPOS>BOND
     1     1    13 1   
     2     1    31 1   
     3     1    36 2   
     4     2    14 1   
     5     2    32 1   
     6     2    38 1   
     7     2    39 1   
     8     3    32 1   
     9     3    33 ar  
    10     3    35 ar  
    11     4    15 ar  
    12     4    33 ar  
    13     4    40 1   
    14     5    16 1   
    15     5    41 1   
    16     5    42 1   
    17     5    43 1   
    18     6    16 1   
    19     6    17 ar  
    20     6    20 ar  
    21     7    17 ar  
    22     7    18 ar  
    23     7    47 1   
    24     8    28 1   
    25     8    48 1   
    26     8    49 1   
    27     8    50 1   
    28     9    10 1   
    29     9    29 2   
    30     9    51 1   
    31    10    11 1   
    32    10    26 2   
    33    11    12 2   
    34    11    25 1   
    35    12    30 1   
    36    12    52 1   
    37    13    25 2   
    38    13    30 1   
    39    14    31 1   
    40    14    53 1   
    41    14    54 1   
    42    15    16 1   
    43    15    21 ar  
    44    16    34 1   
    45    17    58 1   
    46    18    19 ar  
    47    18    27 1   
    48    19    20 ar  
    49    19    59 1   
    50    20    60 1   
    51    21    35 ar  
    52    21    61 1   
    53    22    23 1   
    54    22    32 1   
    55    22    62 1   
    56    22    63 1   
    57    23    31 1   
    58    23    64 1   
    59    23    65 1   
    60    24    36 1   
    61    24    37 2   
    62    24    66 1   
    63    25    67 1   
    64    26    28 1   
    65    26    68 1   
    66    28    29 1   
    67    30    37 1   
    68    34    69 1   
    69    34    70 1   
    70    44    70 1   
    71    45    70 1   
    72    46    70 1   
    73    55    69 1   
    74    56    69 1   
    75    57    69 1   
@<TRIPOS>SUBSTRUCTURE
     1 9XO         1 TEMP              0 ****  ****    0 ROOT
