@<TRIPOS>MOLECULE
9XP
   39    41     1     0     0
SMALL
No Charge or Current Charge


@<TRIPOS>ATOM
      1 C4          -1.8110     2.6620    -0.3420 c3         1 9XP       0.137000
      2 C5          -0.5050     3.4910    -0.5110 c3         1 9XP      -0.101100
      3 C6          -2.5460     3.1890     0.9200 c3         1 9XP      -0.101100
      4 N1          -0.2160     0.6570    -0.2500 nc         1 9XP      -0.570100
      5 C7          -2.6910     2.9010    -1.5980 c3         1 9XP      -0.101100
      6 C8          -2.4680     0.2000    -0.0100 ca         1 9XP       0.178500
      7 N2          -1.5110     1.2000    -0.1920 na         1 9XP      -0.017100
      8 C9          -4.4050    -0.9940     0.2540 ca         1 9XP       0.196900
      9 C10         -2.4430    -2.1640     0.2990 ca         1 9XP       0.452900
     10 C11         -1.7740    -0.9700     0.0890 ca         1 9XP      -0.417900
     11 C12          2.7720    -2.4020    -0.8560 ca         1 9XP      -0.186000
     12 N3          -3.8150     0.2120     0.0690 nb         1 9XP      -0.233000
     13 C13          4.1760    -2.3320    -0.8850 ca         1 9XP      -0.065000
     14 C14          4.8300    -1.2340    -0.3040 ca         1 9XP      -0.144000
     15 N4          -3.7800    -2.1900     0.3780 nb         1 9XP      -0.308000
     16 C            4.0790    -0.2180     0.3070 ca         1 9XP       0.156000
     17 C2           2.0160    -1.3800    -0.2590 ca         1 9XP       0.334000
     18 C1           2.6790    -0.2910     0.3340 ca         1 9XP      -0.148000
     19 C3          -0.3980    -0.6440    -0.0670 cd         1 9XP       0.614800
     20 N5          -1.8150    -3.3450     0.4830 nv         1 9XP      -1.062900
     21 H1           0.0490     3.1790    -1.4050 hc         1 9XP       0.050811
     22 H2          -0.7270     4.5600    -0.6150 hc         1 9XP       0.050811
     23 H3           0.1540     3.3710     0.3580 hc         1 9XP       0.050811
     24 H4          -1.9530     2.9960     1.8220 hc         1 9XP       0.050811
     25 H5          -2.7150     4.2710     0.8510 hc         1 9XP       0.050811
     26 H6          -3.5230     2.7120     1.0480 hc         1 9XP       0.050811
     27 H7          -3.6690     2.4140    -1.5050 hc         1 9XP       0.050811
     28 H8          -2.8700     3.9710    -1.7540 hc         1 9XP       0.050811
     29 H9          -2.2000     2.5050    -2.4960 hc         1 9XP       0.050811
     30 H10         -5.4920    -1.0010     0.3170 h5         1 9XP       0.046100
     31 H11          2.2730    -3.2550    -1.3090 ha         1 9XP       0.110000
     32 H12          4.7540    -3.1250    -1.3560 ha         1 9XP       0.116000
     33 H13          5.9160    -1.1720    -0.3210 ha         1 9XP       0.131000
     34 H14          2.1200     0.4960     0.8270 ha         1 9XP       0.157000
     35 H15          0.2810    -2.4130    -0.5470 hn         1 9XP       0.494000
     36 H16         -2.4190    -4.1260     0.7260 hn         1 9XP       0.492000
     37 H17         -0.9490    -3.3210     1.0130 hn         1 9XP       0.492000
     38 N            0.6270    -1.5070    -0.2480 nu         1 9XP      -0.900200
     39 Cl           4.8990     1.1500     1.0480 cl         1 9XP      -0.209000
@<TRIPOS>BOND
     1     1     2 1   
     2     1     3 1   
     3     1     5 1   
     4     1     7 1   
     5     2    21 1   
     6     2    22 1   
     7     2    23 1   
     8     3    24 1   
     9     3    25 1   
    10     3    26 1   
    11     4     7 1   
    12     4    19 2   
    13     5    27 1   
    14     5    28 1   
    15     5    29 1   
    16     6     7 1   
    17     6    10 ar  
    18     6    12 ar  
    19     8    12 ar  
    20     8    15 ar  
    21     8    30 1   
    22     9    10 ar  
    23     9    15 ar  
    24     9    20 1   
    25    10    19 1   
    26    11    13 ar  
    27    11    17 ar  
    28    11    31 1   
    29    13    14 ar  
    30    13    32 1   
    31    14    16 ar  
    32    14    33 1   
    33    16    18 ar  
    34    16    39 1   
    35    17    18 ar  
    36    17    38 1   
    37    18    34 1   
    38    19    38 1   
    39    20    36 1   
    40    20    37 1   
    41    35    38 1   
@<TRIPOS>SUBSTRUCTURE
     1 9XP         1 TEMP              0 ****  ****    0 ROOT
