@<TRIPOS>MOLECULE
9XP
   39    41     1     0     0
SMALL
abcg2


@<TRIPOS>ATOM
      1 C4          -1.7300     2.5870    -0.3100 c3         1 9XP       0.137000
      2 C5          -0.3920     3.2650    -0.5800 c3         1 9XP      -0.101100
      3 C6          -2.2830     3.0710     1.0310 c3         1 9XP      -0.101100
      4 N1          -0.3040     0.5810    -0.4060 nc         1 9XP      -0.570100
      5 C7          -2.7010     2.9070    -1.4480 c3         1 9XP      -0.101100
      6 C8          -2.4540     0.1700    -0.0390 ca         1 9XP       0.178500
      7 N2          -1.5310     1.1250    -0.2450 na         1 9XP      -0.017100
      8 C9          -4.3960    -0.8170     0.3300 ca         1 9XP       0.196900
      9 C10         -2.5710    -2.1990     0.2260 ca         1 9XP       0.452900
     10 C11         -1.7850    -1.0590    -0.0370 ca         1 9XP      -0.417900
     11 C12          2.8530    -2.3910    -0.6300 ca         1 9XP      -0.186000
     12 N3          -3.7720     0.3260     0.1410 nb         1 9XP      -0.233000
     13 C13          4.2200    -2.2170    -0.5260 ca         1 9XP      -0.065000
     14 C14          4.7610    -1.0060    -0.1110 ca         1 9XP      -0.144000
     15 N4          -3.8860    -2.0460     0.3900 nb         1 9XP      -0.308000
     16 C            3.8810     0.0180     0.1900 ca         1 9XP       0.156000
     17 C2           1.9750    -1.3450    -0.3190 ca         1 9XP       0.334000
     18 C1           2.5050    -0.1180     0.0900 ca         1 9XP      -0.148000
     19 C3          -0.4280    -0.7150    -0.2850 cd         1 9XP       0.614800
     20 N5          -2.0700    -3.4390     0.3030 nv         1 9XP      -1.062900
     21 H1           0.0490     2.9460    -1.5230 hc         1 9XP       0.050811
     22 H2          -0.5630     4.3400    -0.6350 hc         1 9XP       0.050811
     23 H3           0.3290     3.0810     0.2160 hc         1 9XP       0.050811
     24 H4          -1.5790     2.8600     1.8370 hc         1 9XP       0.050811
     25 H5          -2.4420     4.1490     0.9970 hc         1 9XP       0.050811
     26 H6          -3.2350     2.5990     1.2680 hc         1 9XP       0.050811
     27 H7          -3.6890     2.4870    -1.2690 hc         1 9XP       0.050811
     28 H8          -2.8070     3.9880    -1.5430 hc         1 9XP       0.050811
     29 H9          -2.3260     2.5220    -2.3980 hc         1 9XP       0.050811
     30 H10         -5.4710    -0.7560     0.4660 h5         1 9XP       0.046100
     31 H11          2.4570    -3.3470    -0.9530 ha         1 9XP       0.110000
     32 H12          4.8790    -3.0380    -0.7720 ha         1 9XP       0.116000
     33 H13          5.8300    -0.8680    -0.0320 ha         1 9XP       0.131000
     34 H14          1.8600     0.7170     0.3140 ha         1 9XP       0.157000
     35 H15          0.3820    -2.5000    -0.7890 hn         1 9XP       0.494000
     36 H16         -2.6820    -4.1760     0.6130 hn         1 9XP       0.492000
     37 H17         -1.0880    -3.5960     0.4470 hn         1 9XP       0.492000
     38 N            0.6200    -1.5990    -0.4060 nu         1 9XP      -0.900200
     39 CL           4.5140     1.5500     0.7080 cl         1 9XP      -0.209000
@<TRIPOS>BOND
     1     1     2 1   
     2     1     3 1   
     3     1     5 1   
     4     1     7 1   
     5     2    21 1   
     6     2    22 1   
     7     2    23 1   
     8     3    24 1   
     9     3    25 1   
    10     3    26 1   
    11     4     7 1   
    12     4    19 2   
    13     5    27 1   
    14     5    28 1   
    15     5    29 1   
    16     6     7 1   
    17     6    10 ar  
    18     6    12 ar  
    19     8    12 ar  
    20     8    15 ar  
    21     8    30 1   
    22     9    10 ar  
    23     9    15 ar  
    24     9    20 1   
    25    10    19 1   
    26    11    13 ar  
    27    11    17 ar  
    28    11    31 1   
    29    13    14 ar  
    30    13    32 1   
    31    14    16 ar  
    32    14    33 1   
    33    16    18 ar  
    34    16    39 1   
    35    17    18 ar  
    36    17    38 1   
    37    18    34 1   
    38    19    38 1   
    39    20    36 1   
    40    20    37 1   
    41    35    38 1   
@<TRIPOS>SUBSTRUCTURE
     1 9XP         1 TEMP              0 ****  ****    0 ROOT
