@<TRIPOS>MOLECULE
9XQ
   22    22     1     0     0
SMALL
No Charge or Current Charge


@<TRIPOS>ATOM
      1 CG          -1.6460    -0.1460    -0.1860 ca         1 9XQ      -0.114600
      2 CD1         -0.3150     0.2520    -0.4580 ca         1 9XQ      -0.092000
      3 CE1          0.7570    -0.6440    -0.2800 ca         1 9XQ      -0.122200
      4 CZ           0.5020    -1.9640     0.1240 ca         1 9XQ      -0.131000
      5 CE2         -0.8120    -2.3730     0.3970 ca         1 9XQ      -0.119000
      6 CD2         -1.8790    -1.4710     0.2490 ca         1 9XQ      -0.050000
      7 NH1          4.1120     0.7020    -0.2210 nv         1 9XQ      -1.038000
      8 NH2          2.4440     1.1700     1.1760 nv         1 9XQ      -0.616800
      9 C           -2.8020     0.8240    -0.3640 c          1 9XQ       0.709600
     10 O           -2.5570     1.9690    -0.7200 o          1 9XQ      -0.690500
     11 NE3          2.0690    -0.2520    -0.6000 nu         1 9XQ      -0.340600
     12 CE4          2.8560     0.5390     0.1130 cz         1 9XQ       0.926600
     13 HD1         -0.1140     1.2620    -0.8090 ha         1 9XQ       0.141000
     14 HZ           1.3190    -2.6740     0.2360 ha         1 9XQ       0.101000
     15 HE2         -1.0060    -3.3930     0.7220 ha         1 9XQ       0.116000
     16 HD2         -2.8910    -1.8100     0.4650 ha         1 9XQ       0.155000
     17 HH12         4.7180     1.3270     0.2930 hn         1 9XQ       0.374250
     18 HH11         4.4810     0.3420    -1.0930 hn         1 9XQ       0.374250
     19 HH21         1.5080     1.0380     1.5210 hn         1 9XQ       0.374250
     20 HE3          2.5850    -0.9160    -1.1600 hn         1 9XQ       0.360000
     21 OXT         -3.9380     0.4260    -0.1420 o          1 9XQ      -0.690500
     22 HH22         3.0670     1.7230     1.7400 hn         1 9XQ       0.374250
@<TRIPOS>BOND
     1     1     2 ar  
     2     1     6 ar  
     3     1     9 1   
     4     2     3 ar  
     5     2    13 1   
     6     3     4 ar  
     7     3    11 1   
     8     4     5 ar  
     9     4    14 1   
    10     5     6 ar  
    11     5    15 1   
    12     6    16 1   
    13     7    12 2   
    14     7    17 1   
    15     7    18 1   
    16     8    12 1   
    17     8    19 1   
    18     8    22 1   
    19     9    10 1   
    20     9    21 1   
    21    11    12 1   
    22    11    20 1   
@<TRIPOS>SUBSTRUCTURE
     1 9XQ         1 TEMP              0 ****  ****    0 ROOT
