@<TRIPOS>MOLECULE
9XQ
   22    22     1     0     0
SMALL
abcg2


@<TRIPOS>ATOM
      1 CG          -1.5620    -0.1500    -0.1540 ca         1 9XQ      -0.114600
      2 CD1         -0.2390     0.1930    -0.4140 ca         1 9XQ      -0.092000
      3 CE1          0.7740    -0.7440    -0.2610 ca         1 9XQ      -0.122200
      4 CZ           0.4810    -2.0450     0.1290 ca         1 9XQ      -0.131000
      5 CE2         -0.8390    -2.3980     0.3640 ca         1 9XQ      -0.119000
      6 CD2         -1.8500    -1.4560     0.2320 ca         1 9XQ      -0.050000
      7 NH1          4.0560     0.8010    -0.2640 nv         1 9XQ      -1.038000
      8 NH2          2.2910     1.1770     1.1500 nv         1 9XQ      -0.616800
      9 C           -2.6690     0.8890    -0.3070 c          1 9XQ       0.709600
     10 O           -2.3140     2.0260    -0.6700 o          1 9XQ      -0.690500
     11 NE3          2.1210    -0.3930    -0.5380 nu         1 9XQ      -0.340600
     12 CE4          2.8190     0.5330     0.1230 cz         1 9XQ       0.926600
     13 HD1         -0.0050     1.1970    -0.7450 ha         1 9XQ       0.141000
     14 HZ           1.2770    -2.7700     0.2450 ha         1 9XQ       0.101000
     15 HE2         -1.0770    -3.4110     0.6600 ha         1 9XQ       0.116000
     16 HD2         -2.8760    -1.7380     0.4280 ha         1 9XQ       0.155000
     17 HH12         4.6240     1.4720     0.2240 hn         1 9XQ       0.374250
     18 HH11         4.4600     0.3580    -1.0730 hn         1 9XQ       0.374250
     19 HH21         1.3850     0.9360     1.5180 hn         1 9XQ       0.374250
     20 HE3          2.6190    -0.9470    -1.2200 hn         1 9XQ       0.360000
     21 OXT         -3.8250     0.5070    -0.0520 o          1 9XQ      -0.690500
     22 HH22         2.8070     1.8950     1.6300 hn         1 9XQ       0.374250
@<TRIPOS>BOND
     1     1     2 ar  
     2     1     6 ar  
     3     1     9 1   
     4     2     3 ar  
     5     2    13 1   
     6     3     4 ar  
     7     3    11 1   
     8     4     5 ar  
     9     4    14 1   
    10     5     6 ar  
    11     5    15 1   
    12     6    16 1   
    13     7    12 2   
    14     7    17 1   
    15     7    18 1   
    16     8    12 1   
    17     8    19 1   
    18     8    22 1   
    19     9    10 1   
    20     9    21 1   
    21    11    12 1   
    22    11    20 1   
@<TRIPOS>SUBSTRUCTURE
     1 9XQ         1 TEMP              0 ****  ****    0 ROOT
