@<TRIPOS>MOLECULE
9XR
   72    76     1     0     0
SMALL
No Charge or Current Charge


@<TRIPOS>ATOM
      1 O7N         -7.6510    51.6090    24.0660 o          1 9XR      -0.698100
      2 C7N         -7.4710    52.2490    23.0410 c          1 9XR       0.598700
      3 N7N         -7.6950    53.5790    23.0540 nt         1 9XR      -0.577000
      4 C3N         -6.9940    51.6180    21.7490 ca         1 9XR      -0.089600
      5 C2N         -6.4360    52.4040    20.7180 ca         1 9XR      -0.128000
      6 C4N         -7.1110    50.2250    21.5410 ca         1 9XR      -0.129000
      7 C5N         -6.7200    49.6480    20.3200 ca         1 9XR      -0.109000
      8 C6N         -6.2170    50.4580    19.2870 ca         1 9XR      -0.201000
      9 C1N         -6.0810    51.8390    19.4830 ca         1 9XR       0.327000
     10 C1D         -6.5720    53.7100    18.1400 c5         1 9XR       0.429500
     11 O4D         -5.8460    54.9290    18.2800 os         1 9XR      -0.438000
     12 C2D         -6.9070    53.5860    16.5870 c5         1 9XR       0.080300
     13 O2D         -6.1080    52.6300    15.8200 oh         1 9XR      -0.735000
     14 C3D         -6.6420    55.0510    16.0700 c5         1 9XR       0.129300
     15 O3D         -5.4450    55.0270    15.2940 oh         1 9XR      -0.713000
     16 C4D         -6.4860    55.8760    17.3930 c5         1 9XR       0.141300
     17 C5D         -7.8410    56.4130    17.9630 c3         1 9XR       0.225600
     18 O5D         -7.5890    57.2250    19.1200 os         1 9XR      -0.589400
     19 PN          -8.1030    56.7730    20.5800 p5         1 9XR       1.492800
     20 O1N         -7.9150    55.3070    20.7820 o          1 9XR      -0.848000
     21 O2N         -7.4060    57.6050    21.6050 o          1 9XR      -0.848000
     22 O3          -9.6060    57.1720    20.3480 os         1 9XR      -0.731800
     23 PA         -10.4970    57.1840    21.6470 p5         1 9XR       1.461800
     24 O1A        -10.0140    56.3200    22.7640 o          1 9XR      -0.836500
     25 O2A        -11.9020    56.8310    21.2910 o          1 9XR      -0.836500
     26 O5B        -10.3490    58.7480    22.0100 os         1 9XR      -0.603400
     27 C5B        -11.0690    59.7510    21.2700 c3         1 9XR       0.233600
     28 C4B        -12.5470    59.8750    21.7610 c5         1 9XR       0.154300
     29 C3B        -13.1970    61.2630    21.4140 c5         1 9XR       0.150300
     30 O3B        -14.0620    61.2230    20.2770 oh         1 9XR      -0.687000
     31 C2B        -14.0410    61.5590    22.6860 c5         1 9XR       0.075300
     32 O2B        -15.3200    60.8830    22.6250 oh         1 9XR      -0.696000
     33 C1B        -13.0700    60.9830    23.7750 c5         1 9XR       0.287300
     34 O4B        -12.6600    59.7240    23.2070 os         1 9XR      -0.420000
     35 N9A        -11.8750    61.7680    24.1100 na         1 9XR      -0.297300
     36 C4A        -11.7660    63.1120    24.3760 ca         1 9XR       0.094500
     37 C5A        -10.4570    63.3560    24.7100 ca         1 9XR      -0.079600
     38 N7A         -9.6800    62.2040    24.6970 nc         1 9XR      -0.564100
     39 C8A        -10.5780    61.2630    24.3430 cd         1 9XR       0.470700
     40 N3A        -12.6870    64.0970    24.3580 nb         1 9XR      -0.227000
     41 C2A        -12.2450    65.3350    24.6790 ca         1 9XR       0.151900
     42 N1A        -10.9800    65.6800    25.0150 nb         1 9XR      -0.325000
     43 C6A        -10.0850    64.6810    25.0270 ca         1 9XR       0.437900
     44 N6A         -8.8170    65.0270    25.3760 nv         1 9XR      -1.075900
     45 N8N         -5.6040    52.6410    18.4500 nu         1 9XR      -0.987200
     46 H71N        -8.0500    54.0050    23.8940 hn         1 9XR       0.356500
     47 H72N        -7.6660    54.1180    22.1920 hn         1 9XR       0.356500
     48 H2N         -6.2690    53.4650    20.8620 ha         1 9XR       0.184000
     49 H4N         -7.5240    49.5900    22.3230 ha         1 9XR       0.122000
     50 H5N         -6.8240    48.5760    20.1680 ha         1 9XR       0.083000
     51 H6N1        -5.9360    50.0100    18.3380 ha         1 9XR       0.085000
     52 H1D         -7.4880    53.7140    18.7530 h2         1 9XR       0.106700
     53 H2D         -7.9750    53.3490    16.4780 h1         1 9XR       0.053700
     54 HO2N        -6.7010    51.8730    15.5870 ho         1 9XR       0.505000
     55 H3D         -7.4800    55.4210    15.4630 h1         1 9XR       0.042700
     56 HO3N        -5.2710    54.0450    15.2740 ho         1 9XR       0.505000
     57 H4D         -5.8200    56.7360    17.2420 h1         1 9XR       0.095700
     58 H51N        -8.3230    57.0240    17.1890 h1         1 9XR       0.020700
     59 H52N        -8.5230    55.5830    18.1880 h1         1 9XR       0.020700
     60 H52A       -11.0690    59.5260    20.1950 h1         1 9XR       0.043200
     61 H51A       -10.5710    60.7200    21.3970 h1         1 9XR       0.043200
     62 H4B        -13.1320    59.0670    21.3050 h1         1 9XR       0.049700
     63 H3B        -12.4230    62.0340    21.2870 h1         1 9XR       0.089700
     64 HO3A       -14.9390    61.0090    20.6860 ho         1 9XR       0.500000
     65 H2B        -14.1980    62.6380    22.8100 h1         1 9XR       0.049700
     66 HO2A       -15.7970    61.0680    23.4680 ho         1 9XR       0.492000
     67 H1B        -13.5920    60.8190    24.7260 h2         1 9XR       0.081700
     68 H8A        -10.3650    60.2040    24.2410 h5         1 9XR       0.132800
     69 H2A        -12.9830    66.1360    24.6660 h5         1 9XR       0.024100
     70 H61A        -8.6820    65.9060    25.8680 hn         1 9XR       0.500000
     71 H62A        -8.1790    64.2700    25.6090 hn         1 9XR       0.500000
     72 HN8N        -5.3020    52.1250    17.6240 hn         1 9XR       0.481000
@<TRIPOS>BOND
     1     1     2 2   
     2     2     3 1   
     3     2     4 1   
     4     3    46 1   
     5     3    47 1   
     6     4     5 ar  
     7     4     6 ar  
     8     5     9 ar  
     9     5    48 1   
    10     6     7 ar  
    11     6    49 1   
    12     7     8 ar  
    13     7    50 1   
    14     8     9 ar  
    15     8    51 1   
    16     9    45 1   
    17    10    11 1   
    18    10    12 1   
    19    10    45 1   
    20    10    52 1   
    21    11    16 1   
    22    12    13 1   
    23    12    14 1   
    24    12    53 1   
    25    13    54 1   
    26    14    15 1   
    27    14    16 1   
    28    14    55 1   
    29    15    56 1   
    30    16    17 1   
    31    16    57 1   
    32    17    18 1   
    33    17    58 1   
    34    17    59 1   
    35    18    19 1   
    36    19    20 1   
    37    19    21 1   
    38    19    22 1   
    39    22    23 1   
    40    23    24 1   
    41    23    25 1   
    42    23    26 1   
    43    26    27 1   
    44    27    28 1   
    45    27    60 1   
    46    27    61 1   
    47    28    29 1   
    48    28    34 1   
    49    28    62 1   
    50    29    30 1   
    51    29    31 1   
    52    29    63 1   
    53    30    64 1   
    54    31    32 1   
    55    31    33 1   
    56    31    65 1   
    57    32    66 1   
    58    33    34 1   
    59    33    35 1   
    60    33    67 1   
    61    35    36 1   
    62    35    39 1   
    63    36    37 ar  
    64    36    40 ar  
    65    37    38 1   
    66    37    43 ar  
    67    38    39 2   
    68    39    68 1   
    69    40    41 ar  
    70    41    42 ar  
    71    41    69 1   
    72    42    43 ar  
    73    43    44 1   
    74    44    70 1   
    75    44    71 1   
    76    45    72 1   
@<TRIPOS>SUBSTRUCTURE
     1 9XR         1 TEMP              0 ****  ****    0 ROOT
