@<TRIPOS>MOLECULE
9XR
   72    76     1     0     0
SMALL
bcc


@<TRIPOS>ATOM
      1 O7N         -3.5490    54.3190    23.2380 o          1 9XR      -0.698100
      2 C7N         -4.4460    54.2660    22.4020 c          1 9XR       0.665700
      3 N7N         -5.4860    55.1090    22.4160 nt         1 9XR      -0.644000
      4 C3N         -4.4050    53.2280    21.3160 ca         1 9XR      -0.089600
      5 C2N         -5.2880    53.2450    20.2400 ca         1 9XR      -0.146000
      6 C4N         -3.4270    52.2410    21.3970 ca         1 9XR      -0.147000
      7 C5N         -3.3510    51.2780    20.4010 ca         1 9XR      -0.127000
      8 C6N         -4.2410    51.2750    19.3420 ca         1 9XR      -0.219000
      9 C1N         -5.2360    52.2560    19.2510 ca         1 9XR       0.188600
     10 C1D         -7.2560    53.0650    18.1240 c5         1 9XR       0.406300
     11 O4D         -6.9190    54.3460    17.6010 os         1 9XR      -0.391600
     12 C2D         -8.3760    52.5140    17.1970 c5         1 9XR       0.057100
     13 O2D         -7.9800    51.4130    16.4210 oh         1 9XR      -0.612800
     14 C3D         -8.7160    53.7070    16.2760 c5         1 9XR       0.106100
     15 O3D         -8.1020    53.5870    15.0210 oh         1 9XR      -0.590800
     16 C4D         -8.0810    54.8830    17.0120 c5         1 9XR       0.118100
     17 C5D         -9.0240    55.5060    18.0340 c3         1 9XR       0.202400
     18 O5D         -8.3600    56.5640    18.6920 os         1 9XR      -0.566200
     19 PN          -8.2540    56.6550    20.3190 p5         1 9XR       1.492800
     20 O1N         -7.8700    55.3100    20.8890 o          1 9XR      -0.848000
     21 O2N         -7.4480    57.8740    20.6060 o          1 9XR      -0.848000
     22 O3          -9.8490    56.8730    20.6460 os         1 9XR      -0.731800
     23 PA         -10.5080    57.5850    21.9790 p5         1 9XR       1.461800
     24 O1A         -9.5130    57.6350    23.0900 o          1 9XR      -0.836500
     25 O2A        -11.8620    56.9740    22.1340 o          1 9XR      -0.836500
     26 O5B        -10.6550    59.1380    21.4530 os         1 9XR      -0.580200
     27 C5B        -11.5450    59.4570    20.4090 c3         1 9XR       0.210400
     28 C4B        -12.2440    60.7690    20.6710 c5         1 9XR       0.131100
     29 C3B        -11.3510    61.9670    20.9760 c5         1 9XR       0.127100
     30 O3B        -10.7800    62.4540    19.8010 oh         1 9XR      -0.564800
     31 C2B        -12.3360    62.9000    21.6870 c5         1 9XR       0.052100
     32 O2B        -13.1200    63.5380    20.7190 oh         1 9XR      -0.573800
     33 C1B        -13.1650    61.8800    22.4900 c5         1 9XR       0.234800
     34 O4B        -13.0890    60.6620    21.8120 os         1 9XR      -0.373600
     35 N9A        -12.6740    61.7050    23.8480 na         1 9XR      -0.268000
     36 C4A        -13.1040    62.4190    24.9290 ca         1 9XR       0.422800
     37 C5A        -12.3490    61.9570    25.9950 ca         1 9XR      -0.210200
     38 N7A        -11.4740    60.9860    25.5850 nc         1 9XR      -0.564100
     39 C8A        -11.6950    60.8670    24.3080 cd         1 9XR       0.470700
     40 N3A        -14.0460    63.3590    24.9700 nb         1 9XR      -0.753000
     41 C2A        -14.2050    63.8340    26.1930 ca         1 9XR       0.677900
     42 N1A        -13.5600    63.4920    27.3050 nb         1 9XR      -0.851000
     43 C6A        -12.6150    62.5460    27.2450 ca         1 9XR       0.766200
     44 N6A        -11.9590    62.2090    28.3580 nv         1 9XR      -0.965500
     45 N8N         -6.1340    52.2230    18.2120 nu         1 9XR      -0.793600
     46 H71N        -5.5100    55.8010    23.1470 hn         1 9XR       0.356500
     47 H72N        -6.3030    55.0830    21.8000 hn         1 9XR       0.356500
     48 H2N         -6.0150    54.0390    20.1460 ha         1 9XR       0.202000
     49 H4N         -2.7330    52.2280    22.2260 ha         1 9XR       0.140000
     50 H5N         -2.5910    50.5080    20.4550 ha         1 9XR       0.101000
     51 H6N1        -4.1740    50.5040    18.5820 ha         1 9XR       0.103000
     52 H1D         -7.6710    53.2000    19.1290 h2         1 9XR       0.106700
     53 H2D         -9.2450    52.2630    17.8110 h1         1 9XR       0.053700
     54 HO2N        -8.3290    50.6060    16.8110 ho         1 9XR       0.406000
     55 H3D         -9.8030    53.8240    16.1740 h1         1 9XR       0.042700
     56 HO3N        -8.1630    52.6630    14.7530 ho         1 9XR       0.406000
     57 H4D         -7.7710    55.6610    16.3070 h1         1 9XR       0.095700
     58 H51N        -9.8960    55.9010    17.5030 h1         1 9XR       0.020700
     59 H52N        -9.4010    54.7540    18.7350 h1         1 9XR       0.020700
     60 H52A       -12.3030    58.6800    20.2670 h1         1 9XR       0.043200
     61 H51A       -11.0040    59.5500    19.4610 h1         1 9XR       0.043200
     62 H4B        -12.8480    60.9910    19.7800 h1         1 9XR       0.049700
     63 H3B        -10.5830    61.6730    21.7040 h1         1 9XR       0.089700
     64 HO3A       -10.0590    63.0490    20.0280 ho         1 9XR       0.401000
     65 H2B        -11.8420    63.6170    22.3530 h1         1 9XR       0.049700
     66 HO2A       -13.7270    64.1400    21.1640 ho         1 9XR       0.393000
     67 H1B        -14.2030    62.2120    22.5860 h2         1 9XR       0.081700
     68 H8A        -11.1780    60.1810    23.6540 h5         1 9XR       0.132800
     69 H2A        -14.9590    64.6060    26.3110 h5         1 9XR       0.024100
     70 H61A       -12.2190    62.6160    29.2400 hn         1 9XR       0.444800
     71 H62A       -11.2890    61.4610    28.3580 hn         1 9XR       0.444800
     72 HN8N        -5.9570    51.5920    17.4470 hn         1 9XR       0.425800
@<TRIPOS>BOND
     1     1     2 2   
     2     2     3 1   
     3     2     4 1   
     4     3    46 1   
     5     3    47 1   
     6     4     5 ar  
     7     4     6 ar  
     8     5     9 ar  
     9     5    48 1   
    10     6     7 ar  
    11     6    49 1   
    12     7     8 ar  
    13     7    50 1   
    14     8     9 ar  
    15     8    51 1   
    16     9    45 1   
    17    10    11 1   
    18    10    12 1   
    19    10    45 1   
    20    10    52 1   
    21    11    16 1   
    22    12    13 1   
    23    12    14 1   
    24    12    53 1   
    25    13    54 1   
    26    14    15 1   
    27    14    16 1   
    28    14    55 1   
    29    15    56 1   
    30    16    17 1   
    31    16    57 1   
    32    17    18 1   
    33    17    58 1   
    34    17    59 1   
    35    18    19 1   
    36    19    20 1   
    37    19    21 1   
    38    19    22 1   
    39    22    23 1   
    40    23    24 1   
    41    23    25 1   
    42    23    26 1   
    43    26    27 1   
    44    27    28 1   
    45    27    60 1   
    46    27    61 1   
    47    28    29 1   
    48    28    34 1   
    49    28    62 1   
    50    29    30 1   
    51    29    31 1   
    52    29    63 1   
    53    30    64 1   
    54    31    32 1   
    55    31    33 1   
    56    31    65 1   
    57    32    66 1   
    58    33    34 1   
    59    33    35 1   
    60    33    67 1   
    61    35    36 1   
    62    35    39 1   
    63    36    37 ar  
    64    36    40 ar  
    65    37    38 1   
    66    37    43 ar  
    67    38    39 2   
    68    39    68 1   
    69    40    41 ar  
    70    41    42 ar  
    71    41    69 1   
    72    42    43 ar  
    73    43    44 1   
    74    44    70 1   
    75    44    71 1   
    76    45    72 1   
@<TRIPOS>SUBSTRUCTURE
     1 9XR         1 TEMP              0 ****  ****    0 ROOT
