@<TRIPOS>MOLECULE
9XT
   39    42     1     0     0
SMALL
abcg2


@<TRIPOS>ATOM
      1 N1           5.5970     0.0980     2.0500 nv         1 9XT      -1.071000
      2 N3          -0.0000     1.2820    -1.8130 nc         1 9XT      -0.172400
      3 C4           2.7700    -0.2770    -1.0210 ca         1 9XT      -0.171300
      4 C5           3.1310    -1.3760    -0.2530 ca         1 9XT      -0.041000
      5 C6           4.0500    -1.2460     0.7760 ca         1 9XT      -0.189000
      6 C7           4.6390    -0.0120     1.0630 ca         1 9XT       0.304000
      7 C8           1.7460    -0.3930    -2.1140 c3         1 9XT       0.153900
      8 C10         -2.5850    -0.2630     0.0250 ca         1 9XT       0.238000
      9 C13         -3.7370     0.5220     0.3910 cc         1 9XT       0.032000
     10 C15         -5.6480     1.3860     1.1310 cd         1 9XT      -0.211000
     11 C1           4.9180     2.4430     0.5580 c3         1 9XT      -0.040800
     12 C11         -1.5220    -2.3170     0.0900 ca         1 9XT       0.425900
     13 C12         -0.4750    -0.6900    -0.9640 ca         1 9XT       0.149500
     14 C14         -4.8670     0.2030     1.0850 cd         1 9XT      -0.106000
     15 C16         -4.9340     2.3300     0.4640 cc         1 9XT       0.151900
     16 C2           4.2850     1.1110     0.2890 ca         1 9XT      -0.143300
     17 C3           3.3570     0.9520    -0.7300 ca         1 9XT      -0.043000
     18 C9          -1.4890     0.2300    -0.7060 ca         1 9XT      -0.133600
     19 N2           0.4260     0.0180    -1.6670 na         1 9XT      -0.049100
     20 N4          -1.1370     1.4250    -1.2560 nd         1 9XT      -0.169400
     21 N5          -2.5730    -1.5250     0.4070 nb         1 9XT      -0.274000
     22 N6          -0.4350    -1.9590    -0.5970 nb         1 9XT      -0.264000
     23 O1          -3.7810     1.8180     0.0130 os         1 9XT      -0.196000
     24 H1           5.6570     0.9880     2.5180 hn         1 9XT       0.448000
     25 H2           5.6240    -0.6640     2.7090 hn         1 9XT       0.448000
     26 H3           2.6870    -2.3440    -0.4500 ha         1 9XT       0.119000
     27 H4           4.3180    -2.1140     1.3680 ha         1 9XT       0.112000
     28 H5           1.9970     0.2340    -2.9690 h1         1 9XT       0.074700
     29 H6           1.6650    -1.4190    -2.4710 h1         1 9XT       0.074700
     30 H7          -6.6100     1.5200     1.5970 ha         1 9XT       0.145000
     31 H8           6.0050     2.3980     0.4640 hc         1 9XT       0.040367
     32 H9           4.5550     3.1970    -0.1390 hc         1 9XT       0.040367
     33 H10          4.7030     2.8050     1.5680 hc         1 9XT       0.040367
     34 H11         -5.1040    -0.7590     1.5080 ha         1 9XT       0.154000
     35 H12         -5.1230     3.3680     0.2420 h4         1 9XT       0.058100
     36 H13          3.0890     1.8210    -1.3230 ha         1 9XT       0.118000
     37 H14         -2.4190    -3.9040     1.0000 hn         1 9XT       0.508000
     38 H15         -0.8860    -4.2460     0.2790 hn         1 9XT       0.508000
     39 N7          -1.5970    -3.5810     0.5240 nv         1 9XT      -1.070900
@<TRIPOS>BOND
     1     1     6 1   
     2     1    24 1   
     3     1    25 1   
     4     2    19 1   
     5     2    20 2   
     6     3     4 ar  
     7     3     7 1   
     8     3    17 ar  
     9     4     5 ar  
    10     4    26 1   
    11     5     6 ar  
    12     5    27 1   
    13     6    16 ar  
    14     7    19 1   
    15     7    28 1   
    16     7    29 1   
    17     8     9 1   
    18     8    18 ar  
    19     8    21 ar  
    20     9    14 2   
    21     9    23 1   
    22    10    14 1   
    23    10    15 2   
    24    10    30 1   
    25    11    16 1   
    26    11    31 1   
    27    11    32 1   
    28    11    33 1   
    29    12    21 ar  
    30    12    22 ar  
    31    12    39 1   
    32    13    18 ar  
    33    13    19 1   
    34    13    22 ar  
    35    14    34 1   
    36    15    23 1   
    37    15    35 1   
    38    16    17 ar  
    39    17    36 1   
    40    18    20 1   
    41    37    39 1   
    42    38    39 1   
@<TRIPOS>SUBSTRUCTURE
     1 9XT         1 TEMP              0 ****  ****    0 ROOT
