@<TRIPOS>MOLECULE
9XT
   39    42     1     0     0
SMALL
No Charge or Current Charge


@<TRIPOS>ATOM
      1 N1           5.8060    -0.1660     1.7100 nv         1 9XT      -1.071000
      2 N3          -0.1850     1.1320    -2.3520 nc         1 9XT      -0.172400
      3 C4           2.8080    -0.4130    -1.2100 ca         1 9XT      -0.171300
      4 C5           3.7000    -1.4800    -1.0000 ca         1 9XT      -0.041000
      5 C6           4.6980    -1.3810    -0.0170 ca         1 9XT      -0.189000
      6 C7           4.8190    -0.2220     0.7600 ca         1 9XT       0.304000
      7 C8           1.7220    -0.5270    -2.2810 c3         1 9XT       0.153900
      8 C10         -2.5100    -0.0630     0.0830 ca         1 9XT       0.238000
      9 C13         -3.7150     0.7710     0.2310 cc         1 9XT       0.032000
     10 C15         -5.6740     1.5700     0.9000 cd         1 9XT      -0.211000
     11 C1           4.0360     2.1420     1.3840 c3         1 9XT      -0.040800
     12 C11         -1.2830    -1.9120     0.7010 ca         1 9XT       0.425900
     13 C12         -0.3850    -0.5890    -0.9010 ca         1 9XT       0.149500
     14 C14         -4.7470     0.5240     1.0960 cd         1 9XT      -0.106000
     15 C16         -5.1660     2.3990    -0.0690 cc         1 9XT       0.151900
     16 C2           3.9340     0.8600     0.5570 ca         1 9XT      -0.143300
     17 C3           2.9340     0.7560    -0.4310 ca         1 9XT      -0.043000
     18 C9          -1.4710     0.2380    -0.8270 ca         1 9XT      -0.133600
     19 N2           0.4070    -0.0180    -1.8570 na         1 9XT      -0.049100
     20 N4          -1.3450     1.2940    -1.7230 nd         1 9XT      -0.169400
     21 N5          -2.3950    -1.1710     0.8580 nb         1 9XT      -0.274000
     22 N6          -0.2590    -1.6920    -0.1400 nb         1 9XT      -0.264000
     23 O1          -3.9470     1.9170    -0.4960 os         1 9XT      -0.196000
     24 H1           5.8160     0.6030     2.3760 hn         1 9XT       0.448000
     25 H2           6.3300    -1.0050     1.9480 hn         1 9XT       0.448000
     26 H3           3.6200    -2.3880    -1.5940 ha         1 9XT       0.119000
     27 H4           5.3790    -2.2140     0.1360 ha         1 9XT       0.112000
     28 H5           2.0410     0.0270    -3.1730 h1         1 9XT       0.074700
     29 H6           1.6000    -1.5770    -2.5750 h1         1 9XT       0.074700
     30 H7          -6.6190     1.7030     1.4160 ha         1 9XT       0.145000
     31 H8           5.0200     2.6110     1.2660 hc         1 9XT       0.040367
     32 H9           3.2850     2.8820     1.0850 hc         1 9XT       0.040367
     33 H10          3.8850     1.9370     2.4510 hc         1 9XT       0.040367
     34 H11         -4.8350    -0.3060     1.7910 ha         1 9XT       0.154000
     35 H12         -5.5410     3.3070    -0.5210 h4         1 9XT       0.058100
     36 H13          2.2530     1.5890    -0.5940 ha         1 9XT       0.118000
     37 H14         -2.0310    -3.3450     1.9450 hn         1 9XT       0.508000
     38 H15         -0.4980    -3.7200     1.2360 hn         1 9XT       0.508000
     39 N7          -1.1890    -3.0140     1.4790 nv         1 9XT      -1.070900
@<TRIPOS>BOND
     1     1     6 1   
     2     1    24 1   
     3     1    25 1   
     4     2    19 1   
     5     2    20 2   
     6     3     4 ar  
     7     3     7 1   
     8     3    17 ar  
     9     4     5 ar  
    10     4    26 1   
    11     5     6 ar  
    12     5    27 1   
    13     6    16 ar  
    14     7    19 1   
    15     7    28 1   
    16     7    29 1   
    17     8     9 1   
    18     8    18 ar  
    19     8    21 ar  
    20     9    14 2   
    21     9    23 1   
    22    10    14 1   
    23    10    15 2   
    24    10    30 1   
    25    11    16 1   
    26    11    31 1   
    27    11    32 1   
    28    11    33 1   
    29    12    21 ar  
    30    12    22 ar  
    31    12    39 1   
    32    13    18 ar  
    33    13    19 1   
    34    13    22 ar  
    35    14    34 1   
    36    15    23 1   
    37    15    35 1   
    38    16    17 ar  
    39    17    36 1   
    40    18    20 1   
    41    37    39 1   
    42    38    39 1   
@<TRIPOS>SUBSTRUCTURE
     1 9XT         1 TEMP              0 ****  ****    0 ROOT
