@<TRIPOS>MOLECULE
9XU
   53    56     1     0     0
SMALL
No Charge or Current Charge


@<TRIPOS>ATOM
      1 C10          9.0910     0.7720    22.2310 c          1 9XU       0.593600
      2 C15          6.8470     1.4250    23.0600 c3         1 9XU       0.145300
      3 C17         10.8890     3.2790    25.2390 c3         1 9XU       0.084300
      4 C20         17.4660    -2.2070    21.8480 c6         1 9XU      -0.182400
      5 C21         17.0490    -3.4570    22.6430 c6         1 9XU      -0.061400
      6 C22         15.8570    -3.1150    23.5590 c6         1 9XU      -0.093200
      7 C26          6.2280     0.1930    23.7110 ca         1 9XU      -0.100300
      8 C28          5.3780    -0.9540    25.6920 ca         1 9XU      -0.115500
      9 C1          12.8490    -0.1190    21.8820 ca         1 9XU      -0.199600
     10 C2          13.3720     0.6640    22.9200 ca         1 9XU      -0.014000
     11 C3          12.5300     1.4450    23.7100 ca         1 9XU      -0.195000
     12 C4          11.1490     1.5210    23.4420 ca         1 9XU       0.135600
     13 C5          10.5910     0.7040    22.4360 ca         1 9XU      -0.222600
     14 C6          11.4450    -0.1480    21.6590 ca         1 9XU       0.085700
     15 C8           8.8880     2.2100    24.2280 c          1 9XU       0.624000
     16 C11         10.8750    -1.1610    20.6520 c3         1 9XU      -0.057800
     17 C12         13.8320    -0.8930    21.0330 c          1 9XU       0.620900
     18 C18         14.9650    -1.6100    21.7000 ce         1 9XU      -0.363400
     19 C19         16.2980    -1.6610    21.0210 c          1 9XU       0.597300
     20 C23         14.7680    -2.3210    22.8400 c2         1 9XU       0.185900
     21 C27          5.9430     0.1840    25.0910 ca         1 9XU      -0.089500
     22 C29          5.0920    -2.0900    24.9180 ca         1 9XU      -0.106000
     23 C30          5.3710    -2.0880    23.5420 ca         1 9XU      -0.115500
     24 C31          5.9370    -0.9510    22.9400 ca         1 9XU      -0.089500
     25 N7          10.2900     2.2920    24.2980 n          1 9XU      -0.302000
     26 N9           8.3330     1.4640    23.1850 n          1 9XU      -0.373400
     27 O13          8.5420     0.2850    21.2530 o          1 9XU      -0.517000
     28 O14         13.7610    -0.8100    19.8140 o          1 9XU      -0.487100
     29 O16          8.1780     2.7950    25.0370 o          1 9XU      -0.561000
     30 O24         16.4980    -1.2640    19.8820 o          1 9XU      -0.508100
     31 O25         13.5760    -2.4290    23.4480 oh         1 9XU      -0.508100
     32 H1           6.4000     2.3250    23.5030 h1         1 9XU       0.077700
     33 H2           6.5600     1.4590    22.0010 h1         1 9XU       0.077700
     34 H3          10.1560     4.0220    25.5760 h1         1 9XU       0.057367
     35 H4          11.2900     2.7560    26.1160 h1         1 9XU       0.057367
     36 H5          11.6990     3.8260    24.7410 h1         1 9XU       0.057367
     37 H7          17.7130    -1.4330    22.5880 hc         1 9XU       0.072700
     38 H8          16.7690    -4.2610    21.9480 hc         1 9XU       0.057200
     39 H9          17.8920    -3.8330    23.2410 hc         1 9XU       0.057200
     40 H10         15.4510    -4.0490    23.9740 hc         1 9XU       0.063700
     41 H11         16.2150    -2.5260    24.4150 hc         1 9XU       0.063700
     42 H12          5.1610    -0.9540    26.7590 ha         1 9XU       0.111500
     43 H13         14.4420     0.6710    23.1200 ha         1 9XU       0.120000
     44 H14         12.9850     2.0070    24.5210 ha         1 9XU       0.125000
     45 H15         10.0090    -1.6880    21.0650 hc         1 9XU       0.063033
     46 H16         10.5730    -0.6680    19.7210 hc         1 9XU       0.063033
     47 H17         11.5770    -1.9590    20.3940 hc         1 9XU       0.063033
     48 H22          6.1610     1.0590    25.7000 ha         1 9XU       0.116500
     49 H23          4.6540    -2.9710    25.3840 ha         1 9XU       0.110000
     50 H24          5.1500    -2.9670    22.9400 ha         1 9XU       0.111500
     51 H25          6.1500    -0.9600    21.8730 ha         1 9XU       0.116500
     52 H28         13.6970    -2.9710    24.2560 ho         1 9XU       0.476000
     53 H6          18.3450    -2.3730    21.2110 hc         1 9XU       0.072700
@<TRIPOS>BOND
     1     1    13 1   
     2     1    26 1   
     3     1    27 2   
     4     2     7 1   
     5     2    26 1   
     6     2    32 1   
     7     2    33 1   
     8     3    25 1   
     9     3    34 1   
    10     3    35 1   
    11     3    36 1   
    12     4     5 1   
    13     4    19 1   
    14     4    37 1   
    15     4    53 1   
    16     5     6 1   
    17     5    38 1   
    18     5    39 1   
    19     6    20 1   
    20     6    40 1   
    21     6    41 1   
    22     7    21 ar  
    23     7    24 ar  
    24     8    21 ar  
    25     8    22 ar  
    26     8    42 1   
    27     9    10 ar  
    28     9    14 ar  
    29     9    17 1   
    30    10    11 ar  
    31    10    43 1   
    32    11    12 ar  
    33    11    44 1   
    34    12    13 ar  
    35    12    25 1   
    36    13    14 ar  
    37    14    16 1   
    38    15    25 1   
    39    15    26 1   
    40    15    29 2   
    41    16    45 1   
    42    16    46 1   
    43    16    47 1   
    44    17    18 1   
    45    17    28 2   
    46    18    19 1   
    47    18    20 2   
    48    19    30 2   
    49    20    31 1   
    50    21    48 1   
    51    22    23 ar  
    52    22    49 1   
    53    23    24 ar  
    54    23    50 1   
    55    24    51 1   
    56    31    52 1   
@<TRIPOS>SUBSTRUCTURE
     1 9XU         1 TEMP              0 ****  ****    0 ROOT
