@<TRIPOS>MOLECULE
9XU
   53    56     1     0     0
SMALL
bcc


@<TRIPOS>ATOM
      1 C10          9.1140     0.6060    22.3380 c          1 9XU       0.736100
      2 C15          6.9610     1.4520    23.0530 c3         1 9XU       0.145300
      3 C17         10.9900     3.2490    25.0900 c3         1 9XU       0.084300
      4 C20         17.4020    -1.9630    22.0160 c6         1 9XU      -0.182400
      5 C21         17.0590    -3.2720    22.7040 c6         1 9XU      -0.061400
      6 C22         15.8580    -3.0890    23.6160 c6         1 9XU      -0.093200
      7 C26          6.3260     0.2110    23.6250 ca         1 9XU      -0.100300
      8 C28          5.9590    -1.2990    25.4730 ca         1 9XU      -0.133500
      9 C1          12.7590    -0.2610    21.9310 ca         1 9XU      -0.199600
     10 C2          13.3130     0.6590    22.8170 ca         1 9XU      -0.032000
     11 C3          12.5340     1.5200    23.5520 ca         1 9XU      -0.213000
     12 C4          11.1470     1.4770    23.4090 ca         1 9XU       0.135600
     13 C5          10.5690     0.5590    22.5150 ca         1 9XU      -0.222600
     14 C6          11.3720    -0.3490    21.7900 ca         1 9XU       0.085700
     15 C8           8.9860     2.3040    24.1160 c          1 9XU       0.833500
     16 C11         10.7780    -1.4540    20.9600 c3         1 9XU      -0.057800
     17 C12         13.7150    -1.0620    21.1100 c          1 9XU       0.620900
     18 C18         14.8940    -1.6430    21.8020 ce         1 9XU      -0.363400
     19 C19         16.2290    -1.3820    21.2600 c          1 9XU       0.597300
     20 C23         14.7270    -2.4170    22.9100 c2         1 9XU       0.185900
     21 C27          6.5740    -0.1750    24.9400 ca         1 9XU      -0.107500
     22 C29          5.0840    -2.0500    24.6980 ca         1 9XU      -0.124000
     23 C30          4.8280    -1.6690    23.3890 ca         1 9XU      -0.133500
     24 C31          5.4520    -0.5480    22.8560 ca         1 9XU      -0.107500
     25 N7          10.3550     2.3250    24.1600 n          1 9XU      -0.369000
     26 N9           8.4190     1.4530    23.1860 n          1 9XU      -0.507400
     27 O13          8.4970    -0.0230    21.5030 o          1 9XU      -0.592500
     28 O14         13.5620    -1.1810    19.9140 o          1 9XU      -0.487100
     29 O16          8.3010     2.9980    24.8400 o          1 9XU      -0.636500
     30 O24         16.4040    -0.6770    20.2830 o          1 9XU      -0.508100
     31 O25         13.5060    -2.5930    23.3850 oh         1 9XU      -0.469100
     32 H1           6.5850     2.3320    23.5680 h1         1 9XU       0.077700
     33 H2           6.7050     1.5630    22.0010 h1         1 9XU       0.077700
     34 H3          10.2310     3.8330    25.5930 h1         1 9XU       0.057367
     35 H4          11.5630     2.7070    25.8400 h1         1 9XU       0.057367
     36 H5          11.6520     3.9290    24.5550 h1         1 9XU       0.057367
     37 H7          17.7060    -1.2220    22.7640 hc         1 9XU       0.072700
     38 H8          16.8370    -4.0380    21.9580 hc         1 9XU       0.057200
     39 H9          17.9090    -3.6300    23.2840 hc         1 9XU       0.057200
     40 H10         15.5220    -4.0510    24.0140 hc         1 9XU       0.063700
     41 H11         16.1280    -2.4710    24.4820 hc         1 9XU       0.063700
     42 H12          6.1610    -1.5870    26.4970 ha         1 9XU       0.129500
     43 H13         14.3890     0.7070    22.9370 ha         1 9XU       0.138000
     44 H14         13.0150     2.2120    24.2250 ha         1 9XU       0.143000
     45 H15          9.9290    -1.9080    21.4620 hc         1 9XU       0.063033
     46 H16         10.4290    -1.0970    19.9920 hc         1 9XU       0.063033
     47 H17         11.5060    -2.2380    20.7790 hc         1 9XU       0.063033
     48 H22          7.2450     0.4060    25.5620 ha         1 9XU       0.134500
     49 H23          4.6040    -2.9270    25.1140 ha         1 9XU       0.128000
     50 H24          4.1500    -2.2490    22.7760 ha         1 9XU       0.129500
     51 H25          5.2550    -0.2610    21.8300 ha         1 9XU       0.134500
     52 H28         13.5030    -3.1700    24.1600 ho         1 9XU       0.437000
     53 H6          18.2390    -2.0780    21.3270 hc         1 9XU       0.072700
@<TRIPOS>BOND
     1     1    13 1   
     2     1    26 1   
     3     1    27 2   
     4     2     7 1   
     5     2    26 1   
     6     2    32 1   
     7     2    33 1   
     8     3    25 1   
     9     3    34 1   
    10     3    35 1   
    11     3    36 1   
    12     4     5 1   
    13     4    19 1   
    14     4    37 1   
    15     4    53 1   
    16     5     6 1   
    17     5    38 1   
    18     5    39 1   
    19     6    20 1   
    20     6    40 1   
    21     6    41 1   
    22     7    21 ar  
    23     7    24 ar  
    24     8    21 ar  
    25     8    22 ar  
    26     8    42 1   
    27     9    10 ar  
    28     9    14 ar  
    29     9    17 1   
    30    10    11 ar  
    31    10    43 1   
    32    11    12 ar  
    33    11    44 1   
    34    12    13 ar  
    35    12    25 1   
    36    13    14 ar  
    37    14    16 1   
    38    15    25 1   
    39    15    26 1   
    40    15    29 2   
    41    16    45 1   
    42    16    46 1   
    43    16    47 1   
    44    17    18 1   
    45    17    28 2   
    46    18    19 1   
    47    18    20 2   
    48    19    30 2   
    49    20    31 1   
    50    21    48 1   
    51    22    23 ar  
    52    22    49 1   
    53    23    24 ar  
    54    23    50 1   
    55    24    51 1   
    56    31    52 1   
@<TRIPOS>SUBSTRUCTURE
     1 9XU         1 TEMP              0 ****  ****    0 ROOT
