@<TRIPOS>MOLECULE
9XV
   40    42     1     0     0
SMALL
abcg2


@<TRIPOS>ATOM
      1 C4          -1.2980     2.1390     0.4090 ca         1 9XV       0.456900
      2 C5          -1.2350     0.8270    -0.1140 ca         1 9XV      -0.386900
      3 C6          -2.2720    -0.0330     0.2610 ca         1 9XV       0.160500
      4 N1          -3.3000     0.2940     1.0540 nb         1 9XV      -0.236000
      5 N3          -2.3250     2.4680     1.1950 nb         1 9XV      -0.312000
      6 CAJ         -2.1620    -3.5510    -1.0700 c3         1 9XV      -0.101100
      7 CAK         -4.2310    -2.2040    -0.7290 c3         1 9XV      -0.101100
      8 CAL         -2.8360    -2.9110     1.2450 c3         1 9XV      -0.101100
      9 NAH         -2.0270    -1.2220    -0.3270 na         1 9XV      -0.020100
     10 NAG         -0.8950    -1.1690    -1.0490 nc         1 9XV      -0.525100
     11 C2          -3.2460     1.5430     1.4630 ca         1 9XV       0.193900
     12 NAR         -0.3890     3.0810     0.1440 nv         1 9XV      -1.064900
     13 CAF         -0.4000     0.0390    -0.9490 cd         1 9XV       0.380900
     14 CAE          0.8620     0.4060    -1.6550 c3         1 9XV      -0.045400
     15 CAD          1.9660     0.8450    -0.7230 ca         1 9XV      -0.079300
     16 CAC          2.1920     0.1640     0.4710 ca         1 9XV      -0.090000
     17 CAB          3.2180     0.5700     1.3060 ca         1 9XV       0.122000
     18 CL           3.4890    -0.2890     2.7880 cl         1 9XV      -0.199000
     19 CAV          4.0330     1.6470     0.9890 ca         1 9XV      -0.104000
     20 CAU          3.8040     2.3210    -0.2000 ca         1 9XV      -0.102000
     21 CAT          2.7800     1.9250    -1.0500 ca         1 9XV      -0.127000
     22 H1          -1.1580    -3.7960    -0.7230 hc         1 9XV       0.050478
     23 H2          -2.7730    -4.4510    -1.0010 hc         1 9XV       0.050478
     24 H3          -2.1030    -3.2670    -2.1190 hc         1 9XV       0.050478
     25 H4          -4.8140    -3.1250    -0.6780 hc         1 9XV       0.050478
     26 H5          -4.7410    -1.4510    -0.1310 hc         1 9XV       0.050478
     27 H6          -4.2150    -1.8730    -1.7680 hc         1 9XV       0.050478
     28 H7          -1.8240    -3.0970     1.6090 hc         1 9XV       0.050478
     29 H8          -3.3010    -2.1630     1.8850 hc         1 9XV       0.050478
     30 H9          -3.4050    -3.8360     1.3420 hc         1 9XV       0.050478
     31 H10         -4.0560     1.8700     2.1080 h5         1 9XV       0.044100
     32 H11         -0.4470     3.9620     0.6280 hn         1 9XV       0.499500
     33 H12          0.4820     2.8660    -0.3090 hn         1 9XV       0.499500
     34 H13          1.1950    -0.4620    -2.2280 hc         1 9XV       0.070200
     35 H14          0.6710     1.1980    -2.3840 hc         1 9XV       0.070200
     36 H15          1.5690    -0.6790     0.7460 ha         1 9XV       0.141000
     37 H16          4.8250     1.9570     1.6570 ha         1 9XV       0.131000
     38 H17          4.4280     3.1660    -0.4620 ha         1 9XV       0.119000
     39 H18          2.6130     2.4620    -1.9770 ha         1 9XV       0.116000
     40 CAI         -2.8140    -2.4680    -0.2180 c3         1 9XV       0.135000
@<TRIPOS>BOND
     1     1     2 ar  
     2     1     5 ar  
     3     1    12 1   
     4     2     3 ar  
     5     2    13 1   
     6     3     4 ar  
     7     3     9 1   
     8     4    11 ar  
     9     5    11 ar  
    10     6    22 1   
    11     6    23 1   
    12     6    24 1   
    13     6    40 1   
    14     7    25 1   
    15     7    26 1   
    16     7    27 1   
    17     7    40 1   
    18     8    28 1   
    19     8    29 1   
    20     8    30 1   
    21     8    40 1   
    22     9    10 1   
    23     9    40 1   
    24    10    13 2   
    25    11    31 1   
    26    12    32 1   
    27    12    33 1   
    28    13    14 1   
    29    14    15 1   
    30    14    34 1   
    31    14    35 1   
    32    15    16 ar  
    33    15    21 ar  
    34    16    17 ar  
    35    16    36 1   
    36    17    18 1   
    37    17    19 ar  
    38    19    20 ar  
    39    19    37 1   
    40    20    21 ar  
    41    20    38 1   
    42    21    39 1   
@<TRIPOS>SUBSTRUCTURE
     1 9XV         1 TEMP              0 ****  ****    0 ROOT
