@<TRIPOS>MOLECULE
9XV
   40    42     1     0     0
SMALL
No Charge or Current Charge


@<TRIPOS>ATOM
      1 C4          -1.2780     2.1130     0.3360 ca         1 9XV       0.456900
      2 C5          -1.2840     0.8000    -0.1190 ca         1 9XV      -0.386900
      3 C6          -2.2880    -0.0470     0.2540 ca         1 9XV       0.160500
      4 N1          -3.2830     0.3750     1.0620 nb         1 9XV      -0.236000
      5 N3          -2.2510     2.5620     1.1380 nb         1 9XV      -0.312000
      6 CAJ         -2.2400    -3.6910    -1.0290 c3         1 9XV      -0.101100
      7 CAK         -4.2790    -2.2530    -0.7510 c3         1 9XV      -0.101100
      8 CAL         -2.9110    -2.9430     1.2730 c3         1 9XV      -0.101100
      9 NAH         -2.0110    -1.2700    -0.3570 na         1 9XV      -0.020100
     10 NAG         -0.8380    -1.2040    -1.1250 nc         1 9XV      -0.525100
     11 C2          -3.2130     1.6660     1.4630 ca         1 9XV       0.193900
     12 NAR         -0.3150     3.0050     0.0270 nv         1 9XV      -1.064900
     13 CAF         -0.4030     0.0520    -0.9790 cd         1 9XV       0.380900
     14 CAE          0.8610     0.5080    -1.6690 c3         1 9XV      -0.045400
     15 CAD          1.9870     0.9190    -0.7240 ca         1 9XV      -0.079300
     16 CAC          2.2690     0.1570     0.4280 ca         1 9XV      -0.090000
     17 CAB          3.2990     0.5450     1.3000 ca         1 9XV       0.122000
     18 Cl           3.6370    -0.4100     2.7380 cl         1 9XV      -0.199000
     19 CAV          4.0600     1.6940     1.0270 ca         1 9XV      -0.104000
     20 CAU          3.7910     2.4540    -0.1240 ca         1 9XV      -0.102000
     21 CAT          2.7590     2.0660    -0.9970 ca         1 9XV      -0.127000
     22 H1          -1.2280    -3.9320    -0.6800 hc         1 9XV       0.050478
     23 H2          -2.8520    -4.5950    -0.9240 hc         1 9XV       0.050478
     24 H3          -2.1850    -3.4480    -2.0970 hc         1 9XV       0.050478
     25 H4          -4.8810    -3.1690    -0.7120 hc         1 9XV       0.050478
     26 H5          -4.8010    -1.4920    -0.1610 hc         1 9XV       0.050478
     27 H6          -4.2490    -1.9110    -1.7930 hc         1 9XV       0.050478
     28 H7          -1.9020    -3.0950     1.6770 hc         1 9XV       0.050478
     29 H8          -3.4130    -2.1920     1.8920 hc         1 9XV       0.050478
     30 H9          -3.4650    -3.8830     1.3820 hc         1 9XV       0.050478
     31 H10         -4.0110     2.0190     2.1150 h5         1 9XV       0.044100
     32 H11         -0.2990     3.8680     0.5650 hn         1 9XV       0.499500
     33 H12          0.5920     2.6430    -0.2500 hn         1 9XV       0.499500
     34 H13          1.2270    -0.2900    -2.3270 hc         1 9XV       0.070200
     35 H14          0.6060     1.3370    -2.3390 hc         1 9XV       0.070200
     36 H15          1.6920    -0.7370     0.6530 ha         1 9XV       0.141000
     37 H16          4.8570     1.9910     1.7050 ha         1 9XV       0.131000
     38 H17          4.3820     3.3410    -0.3390 ha         1 9XV       0.119000
     39 H18          2.5650     2.6600    -1.8880 ha         1 9XV       0.116000
     40 CAI         -2.8450    -2.5090    -0.2160 c3         1 9XV       0.135000
@<TRIPOS>BOND
     1     1     2 ar  
     2     1     5 ar  
     3     1    12 1   
     4     2     3 ar  
     5     2    13 1   
     6     3     4 ar  
     7     3     9 1   
     8     4    11 ar  
     9     5    11 ar  
    10     6    22 1   
    11     6    23 1   
    12     6    24 1   
    13     6    40 1   
    14     7    25 1   
    15     7    26 1   
    16     7    27 1   
    17     7    40 1   
    18     8    28 1   
    19     8    29 1   
    20     8    30 1   
    21     8    40 1   
    22     9    10 1   
    23     9    40 1   
    24    10    13 2   
    25    11    31 1   
    26    12    32 1   
    27    12    33 1   
    28    13    14 1   
    29    14    15 1   
    30    14    34 1   
    31    14    35 1   
    32    15    16 ar  
    33    15    21 ar  
    34    16    17 ar  
    35    16    36 1   
    36    17    18 1   
    37    17    19 ar  
    38    19    20 ar  
    39    19    37 1   
    40    20    21 ar  
    41    20    38 1   
    42    21    39 1   
@<TRIPOS>SUBSTRUCTURE
     1 9XV         1 TEMP              0 ****  ****    0 ROOT
