@<TRIPOS>MOLECULE
9XW
   54    57     1     0     0
SMALL
abcg2


@<TRIPOS>ATOM
      1 C13          2.0470    -0.5670     0.1170 ca         1 9XW      -0.155000
      2 C15         -0.3790    -0.5960     0.3110 cc         1 9XW       0.476800
      3 C17         -2.7880    -0.9980     0.1210 c          1 9XW       0.663100
      4 C20         -5.2070    -1.0210    -0.0750 c6         1 9XW       0.101000
      5 C21         -5.7620    -0.0530    -1.1160 c6         1 9XW      -0.115400
      6 C22         -5.9630     1.3600    -0.5650 c6         1 9XW       0.184000
      7 C26         -4.1970     0.8020     1.1440 c6         1 9XW       0.101000
      8 C28          1.4330    -1.8140     0.2220 ca         1 9XW       0.102400
      9 C01          2.3480    -5.3250     0.4430 c3         1 9XW       0.141900
     10 C03          2.2300    -2.9720     0.2630 ca         1 9XW       0.179100
     11 C04          3.6050    -2.8140     0.2000 ca         1 9XW      -0.192000
     12 C05          4.1890    -1.5470     0.0760 ca         1 9XW      -0.106000
     13 C06          3.4290    -0.3890     0.0320 ca         1 9XW       0.253000
     14 C08          5.2990     1.1190     0.4070 c6         1 9XW       0.143800
     15 C09          5.5870     2.6090     0.4550 c6         1 9XW       0.152100
     16 C11          4.1080     3.0090    -1.2950 c6         1 9XW       0.152100
     17 C12          3.7790     1.5320    -1.3890 c6         1 9XW       0.143800
     18 C23         -6.3510     2.3250    -1.6780 c3         1 9XW      -0.120100
     19 C25         -4.6720     1.8270     0.1240 c6         1 9XW      -0.115400
     20 N07          3.9440     0.9150    -0.0760 nh         1 9XW      -0.766400
     21 N16         -1.6830    -0.1990     0.4190 ns         1 9XW      -0.430400
     22 N19         -3.9820    -0.4850     0.5030 n          1 9XW      -0.416800
     23 N27          0.0640    -1.8000     0.3330 nd         1 9XW      -0.521100
     24 O02          1.5780    -4.1410     0.3770 os         1 9XW      -0.301100
     25 O10          5.4140     3.2170    -0.8050 os         1 9XW      -0.449000
     26 O18         -2.6590    -2.0730    -0.4330 o          1 9XW      -0.568100
     27 S14          0.8360     0.6700     0.1580 ss         1 9XW      -0.021200
     28 H1          -5.9280    -1.1760     0.7310 h1         1 9XW       0.066450
     29 H2          -5.0090    -1.9910    -0.5220 h1         1 9XW       0.066450
     30 H3          -5.0710    -0.0090    -1.9620 hc         1 9XW       0.054950
     31 H4          -6.7110    -0.4370    -1.5010 hc         1 9XW       0.054950
     32 H5          -3.3110     1.1390     1.6800 h1         1 9XW       0.066450
     33 H6          -4.9600     0.6620     1.9130 h1         1 9XW       0.066450
     34 H7           1.6430    -6.1490     0.5240 h1         1 9XW       0.041700
     35 H8           2.9550    -5.4680    -0.4550 h1         1 9XW       0.041700
     36 H9           3.0040    -5.3360     1.3170 h1         1 9XW       0.041700
     37 H10          4.2630    -3.6710     0.2360 ha         1 9XW       0.120000
     38 H11          5.2670    -1.4880     0.0160 ha         1 9XW       0.115000
     39 H12          6.0490     0.6230    -0.2280 h1         1 9XW       0.047700
     40 H13          5.3960     0.7100     1.4140 h1         1 9XW       0.047700
     41 H14          4.9340     3.0780     1.2040 h1         1 9XW       0.051950
     42 H15          6.6210     2.7760     0.7590 h1         1 9XW       0.051950
     43 H16          4.0520     3.4670    -2.2830 h1         1 9XW       0.051950
     44 H17          3.3690     3.5010    -0.6480 h1         1 9XW       0.051950
     45 H18          2.7490     1.4230    -1.7350 h1         1 9XW       0.047700
     46 H19          4.4240     1.0470    -2.1380 h1         1 9XW       0.047700
     47 H20         -7.2750     2.0070    -2.1640 hc         1 9XW       0.043700
     48 H21         -6.5080     3.3310    -1.2820 hc         1 9XW       0.043700
     49 H22         -5.5740     2.3900    -2.4410 hc         1 9XW       0.043700
     50 H23         -3.8920     1.9850    -0.6270 hc         1 9XW       0.054950
     51 H24         -4.8380     2.7920     0.6140 hc         1 9XW       0.054950
     52 H25         -1.8280     0.7850     0.5770 hn         1 9XW       0.325500
     53 O24         -7.0110     1.2630     0.3890 oh         1 9XW      -0.658000
     54 H26         -7.1260     2.1280     0.7990 ho         1 9XW       0.440000
@<TRIPOS>BOND
     1     1     8 ar  
     2     1    13 ar  
     3     1    27 1   
     4     2    21 1   
     5     2    23 2   
     6     2    27 1   
     7     3    21 1   
     8     3    22 1   
     9     3    26 2   
    10     4     5 1   
    11     4    22 1   
    12     4    28 1   
    13     4    29 1   
    14     5     6 1   
    15     5    30 1   
    16     5    31 1   
    17     6    18 1   
    18     6    19 1   
    19     6    53 1   
    20     7    19 1   
    21     7    22 1   
    22     7    32 1   
    23     7    33 1   
    24     8    10 ar  
    25     8    23 1   
    26     9    24 1   
    27     9    34 1   
    28     9    35 1   
    29     9    36 1   
    30    10    11 ar  
    31    10    24 1   
    32    11    12 ar  
    33    11    37 1   
    34    12    13 ar  
    35    12    38 1   
    36    13    20 1   
    37    14    15 1   
    38    14    20 1   
    39    14    39 1   
    40    14    40 1   
    41    15    25 1   
    42    15    41 1   
    43    15    42 1   
    44    16    17 1   
    45    16    25 1   
    46    16    43 1   
    47    16    44 1   
    48    17    20 1   
    49    17    45 1   
    50    17    46 1   
    51    18    47 1   
    52    18    48 1   
    53    18    49 1   
    54    19    50 1   
    55    19    51 1   
    56    21    52 1   
    57    53    54 1   
@<TRIPOS>SUBSTRUCTURE
     1 9XW         1 TEMP              0 ****  ****    0 ROOT
