@<TRIPOS>MOLECULE
9XW
   54    57     1     0     0
SMALL
No Charge or Current Charge


@<TRIPOS>ATOM
      1 C13          2.1580    -0.5710     0.0720 ca         1 9XW      -0.155000
      2 C15         -0.2490    -0.4580     0.3090 cc         1 9XW       0.476800
      3 C17         -2.7090    -0.8160     0.5150 c          1 9XW       0.663100
      4 C20         -5.2410    -0.7580     0.6660 c6         1 9XW       0.101000
      5 C21         -6.0810    -0.3160    -0.5570 c6         1 9XW      -0.115400
      6 C22         -6.2350     1.2290    -0.6280 c6         1 9XW       0.184000
      7 C26         -4.0290     1.4000     0.6810 c6         1 9XW       0.101000
      8 C28          1.5080    -1.7920     0.0870 ca         1 9XW       0.102400
      9 C01          2.2590    -5.4650    -0.1120 c3         1 9XW       0.141900
     10 C03          2.2490    -2.9940    -0.0230 ca         1 9XW       0.179100
     11 C04          3.6570    -2.9180    -0.1420 ca         1 9XW      -0.192000
     12 C05          4.3000    -1.6630    -0.1510 ca         1 9XW      -0.106000
     13 C06          3.5580    -0.4690    -0.0470 ca         1 9XW       0.253000
     14 C08          5.4750     1.0050     0.6950 c6         1 9XW       0.143800
     15 C09          5.7520     2.5170     0.9480 c6         1 9XW       0.152100
     16 C11          4.3960     3.1580    -0.9360 c6         1 9XW       0.152100
     17 C12          4.0650     1.6710    -1.2640 c6         1 9XW       0.143800
     18 C23         -6.9630     1.6440    -1.9340 c3         1 9XW      -0.120100
     19 C25         -4.8340     1.8990    -0.5430 c6         1 9XW      -0.115400
     20 N07          4.2000     0.7900    -0.0610 nh         1 9XW      -0.766400
     21 N16         -1.5630    -0.0590     0.4480 ns         1 9XW      -0.430400
     22 N19         -3.9140    -0.0870     0.6570 n          1 9XW      -0.416800
     23 N27          0.1180    -1.7400     0.2190 nd         1 9XW      -0.521100
     24 O02          1.5760    -4.2050    -0.0070 os         1 9XW      -0.301100
     25 O10          5.6870     3.2650    -0.2900 os         1 9XW      -0.449000
     26 O18         -2.7140    -2.0360     0.4590 o          1 9XW      -0.568100
     27 S14          1.0330     0.7700     0.2470 ss         1 9XW      -0.021200
     28 H1          -5.7710    -0.4940     1.5930 h1         1 9XW       0.066450
     29 H2          -5.1360    -1.8520     0.6580 h1         1 9XW       0.066450
     30 H3          -5.5960    -0.6820    -1.4720 hc         1 9XW       0.054950
     31 H4          -7.0690    -0.7950    -0.5190 hc         1 9XW       0.054950
     32 H5          -3.0520     1.8990     0.6990 h1         1 9XW       0.066450
     33 H6          -4.5470     1.6980     1.6050 h1         1 9XW       0.066450
     34 H7           1.5380    -6.2910    -0.0790 h1         1 9XW       0.041700
     35 H8           2.8100    -5.5330    -1.0600 h1         1 9XW       0.041700
     36 H9           2.9660    -5.5970     0.7170 h1         1 9XW       0.041700
     37 H10          4.2660    -3.8130    -0.2290 ha         1 9XW       0.120000
     38 H11          5.3810    -1.6210    -0.2520 ha         1 9XW       0.115000
     39 H12          6.3210     0.5800     0.1350 h1         1 9XW       0.047700
     40 H13          5.4310     0.4900     1.6660 h1         1 9XW       0.047700
     41 H14          5.0100     2.9200     1.6520 h1         1 9XW       0.051950
     42 H15          6.7480     2.6440     1.3950 h1         1 9XW       0.051950
     43 H16          4.4050     3.7520    -1.8610 h1         1 9XW       0.051950
     44 H17          3.6240     3.5740    -0.2720 h1         1 9XW       0.051950
     45 H18          3.0440     1.6210    -1.6690 h1         1 9XW       0.047700
     46 H19          4.7440     1.3250    -2.0570 h1         1 9XW       0.047700
     47 H20         -7.9610     1.1950    -1.9950 hc         1 9XW       0.043700
     48 H21         -7.0830     2.7330    -1.9990 hc         1 9XW       0.043700
     49 H22         -6.4020     1.3220    -2.8200 hc         1 9XW       0.043700
     50 H23         -4.2640     1.6800    -1.4570 hc         1 9XW       0.054950
     51 H24         -4.9350     2.9920    -0.4990 hc         1 9XW       0.054950
     52 H25         -1.7190     0.9320     0.5070 hn         1 9XW       0.325500
     53 O24         -7.0430     1.6720     0.4630 oh         1 9XW      -0.658000
     54 H26         -7.2390     2.6190     0.2990 ho         1 9XW       0.440000
@<TRIPOS>BOND
     1     1     8 ar  
     2     1    13 ar  
     3     1    27 1   
     4     2    21 1   
     5     2    23 2   
     6     2    27 1   
     7     3    21 1   
     8     3    22 1   
     9     3    26 2   
    10     4     5 1   
    11     4    22 1   
    12     4    28 1   
    13     4    29 1   
    14     5     6 1   
    15     5    30 1   
    16     5    31 1   
    17     6    18 1   
    18     6    19 1   
    19     6    53 1   
    20     7    19 1   
    21     7    22 1   
    22     7    32 1   
    23     7    33 1   
    24     8    10 ar  
    25     8    23 1   
    26     9    24 1   
    27     9    34 1   
    28     9    35 1   
    29     9    36 1   
    30    10    11 ar  
    31    10    24 1   
    32    11    12 ar  
    33    11    37 1   
    34    12    13 ar  
    35    12    38 1   
    36    13    20 1   
    37    14    15 1   
    38    14    20 1   
    39    14    39 1   
    40    14    40 1   
    41    15    25 1   
    42    15    41 1   
    43    15    42 1   
    44    16    17 1   
    45    16    25 1   
    46    16    43 1   
    47    16    44 1   
    48    17    20 1   
    49    17    45 1   
    50    17    46 1   
    51    18    47 1   
    52    18    48 1   
    53    18    49 1   
    54    19    50 1   
    55    19    51 1   
    56    21    52 1   
    57    53    54 1   
@<TRIPOS>SUBSTRUCTURE
     1 9XW         1 TEMP              0 ****  ****    0 ROOT
