@<TRIPOS>MOLECULE
9XX
  116   115     1     0     0
SMALL
bcc


@<TRIPOS>ATOM
      1 C21          4.1670    -1.6480     0.5950 c3         1 9XX      -0.074400
      2 C23          6.4320    -0.4640     0.6390 c3         1 9XX      -0.073400
      3 C6         -13.7610     2.2120     0.3630 c3         1 9XX      -0.073400
      4 C7         -12.7880     1.3600    -0.4410 c3         1 9XX      -0.074400
      5 C8         -11.4960     1.0400     0.3010 c3         1 9XX      -0.073400
      6 C11         -8.3110    -1.0200    -0.6340 c3         1 9XX      -0.075400
      7 C13         -6.1220    -2.2710    -0.7980 c3         1 9XX      -0.069400
      8 C14         -4.8280    -2.6630    -0.1020 c3         1 9XX      -0.136400
      9 C15         -3.9720    -3.5890    -0.9230 c          1 9XX       0.640100
     10 C16         -1.9930    -4.8670    -0.9270 c3         1 9XX       0.140400
     11 C17         -0.8630    -5.2290     0.0060 c3         1 9XX       0.152100
     12 O           -2.8620    -3.9390    -0.2790 os         1 9XX      -0.416900
     13 C10         -9.2430    -0.1570     0.2060 c3         1 9XX      -0.073400
     14 C12         -7.0100    -1.3880     0.0680 c3         1 9XX      -0.075400
     15 C18          1.2570    -4.2070     0.3690 c          1 9XX       0.642100
     16 C19          1.9550    -2.8860     0.5540 c3         1 9XX      -0.136400
     17 C20          3.4590    -2.9750     0.3500 c3         1 9XX      -0.070400
     18 C22          5.6660    -1.7480     0.3480 c3         1 9XX      -0.075400
     19 C24          7.9250    -0.6060     0.3710 c3         1 9XX      -0.076400
     20 C25          8.7410     0.6370     0.7040 c3         1 9XX      -0.072400
     21 C26         10.2260     0.4320     0.4290 c3         1 9XX      -0.073400
     22 C27         11.1300     1.6410     0.6820 c3         1 9XX      -0.055700
     23 C28         12.5530     1.3040     0.2290 c3         1 9XX      -0.073400
     24 C29         13.5550     2.4510     0.2740 c3         1 9XX      -0.073400
     25 C30         14.9270     2.0450    -0.2530 c3         1 9XX      -0.075400
     26 C36         11.0920     2.0800     2.1430 c3         1 9XX      -0.086100
     27 C37         -1.3190    -5.7570     1.3540 c3         1 9XX      -0.110100
     28 C5         -15.0480     2.5200    -0.3920 c3         1 9XX      -0.074400
     29 C9         -10.5400     0.1840    -0.5180 c3         1 9XX      -0.075400
     30 O1          -0.0510    -4.0540     0.1750 os         1 9XX      -0.422900
     31 O2           1.8030    -5.2810     0.4040 o          1 9XX      -0.540000
     32 O6          -4.2410    -3.9860    -2.0290 o          1 9XX      -0.538000
     33 H1           3.7390    -0.8730    -0.0500 hc         1 9XX       0.037700
     34 H2           3.9860    -1.3210     1.6250 hc         1 9XX       0.037700
     35 H3           6.0260     0.3540     0.0340 hc         1 9XX       0.037700
     36 H4           6.2760    -0.1740     1.6840 hc         1 9XX       0.037700
     37 H5         -14.0040     1.7000     1.3010 hc         1 9XX       0.037200
     38 H6         -13.2730     3.1510     0.6490 hc         1 9XX       0.037200
     39 H7         -13.2800     0.4240    -0.7290 hc         1 9XX       0.037700
     40 H8         -12.5470     1.8730    -1.3790 hc         1 9XX       0.037700
     41 H9         -10.9990     1.9730     0.5880 hc         1 9XX       0.037200
     42 H10        -11.7340     0.5240     1.2390 hc         1 9XX       0.037200
     43 H11         -8.8340    -1.9380    -0.9230 hc         1 9XX       0.039700
     44 H12         -8.0800    -0.4990    -1.5690 hc         1 9XX       0.039700
     45 H13         -5.8940    -1.7500    -1.7320 hc         1 9XX       0.054700
     46 H14         -6.6760    -3.1710    -1.0770 hc         1 9XX       0.054700
     47 H15         -4.2390    -1.7760     0.1500 hc         1 9XX       0.071200
     48 H16         -5.0390    -3.1530     0.8540 hc         1 9XX       0.071200
     49 H17         -1.6010    -4.4420    -1.8540 h1         1 9XX       0.060200
     50 H18         -2.5330    -5.7830    -1.1800 h1         1 9XX       0.060200
     51 H19         -0.2840    -5.9990    -0.5100 h1         1 9XX       0.071700
     52 H20         -9.4750    -0.6750     1.1430 hc         1 9XX       0.037200
     53 H21         -8.7300     0.7680     0.4920 hc         1 9XX       0.037200
     54 H22         -6.4710    -0.4750     0.3460 hc         1 9XX       0.038200
     55 H23         -7.2360    -1.9050     1.0080 hc         1 9XX       0.038200
     56 H24          1.5130    -2.1460    -0.1180 hc         1 9XX       0.071700
     57 H25          1.7290    -2.5370     1.5680 hc         1 9XX       0.071700
     58 H26          3.6680    -3.3140    -0.6690 hc         1 9XX       0.054200
     59 H27          3.8790    -3.7310     1.0180 hc         1 9XX       0.054200
     60 H28          6.0780    -2.5570     0.9630 hc         1 9XX       0.039700
     61 H29          5.8390    -2.0460    -0.6920 hc         1 9XX       0.039700
     62 H30          8.3130    -1.4520     0.9510 hc         1 9XX       0.037200
     63 H31          8.0780    -0.8710    -0.6810 hc         1 9XX       0.037200
     64 H32          8.3720     1.4880     0.1200 hc         1 9XX       0.038200
     65 H33          8.5800     0.8970     1.7550 hc         1 9XX       0.038200
     66 H34         10.5880    -0.4100     1.0320 hc         1 9XX       0.036700
     67 H35         10.3450     0.1220    -0.6150 hc         1 9XX       0.036700
     68 H36         10.7670     2.4730     0.0620 hc         1 9XX       0.044700
     69 H37         12.9290     0.4730     0.8400 hc         1 9XX       0.036700
     70 H38         12.5080     0.9220    -0.7970 hc         1 9XX       0.036700
     71 H39         13.1740     3.2960    -0.3120 hc         1 9XX       0.038200
     72 H40         13.6650     2.8180     1.2990 hc         1 9XX       0.038200
     73 H41         15.2930     1.1880     0.3250 hc         1 9XX       0.036700
     74 H42         14.8290     1.6920    -1.2850 hc         1 9XX       0.036700
     75 H44         11.4270     1.2690     2.7960 hc         1 9XX       0.031700
     76 H45         11.7410     2.9370     2.3270 hc         1 9XX       0.031700
     77 H46         10.0880     2.3660     2.4580 hc         1 9XX       0.031700
     78 H47         -1.8430    -4.9960     1.9310 hc         1 9XX       0.051033
     79 H48         -1.9930    -6.6010     1.2100 hc         1 9XX       0.051033
     80 H49         -0.4710    -6.1090     1.9400 hc         1 9XX       0.051033
     81 H50        -14.8030     3.0300    -1.3310 hc         1 9XX       0.036700
     82 H51        -15.5320     1.5790    -0.6790 hc         1 9XX       0.036700
     83 H53        -11.0440    -0.7450    -0.8080 hc         1 9XX       0.037700
     84 H54        -10.3040     0.7010    -1.4550 hc         1 9XX       0.037700
     85 C4         -16.0310     3.3700     0.4020 c3         1 9XX      -0.074400
     86 C3         -17.3160     3.6700    -0.3610 c3         1 9XX      -0.074400
     87 C2         -18.3030     4.5190     0.4290 c3         1 9XX      -0.075400
     88 C1         -19.5900     4.8130    -0.3320 c3         1 9XX      -0.075400
     89 C31         15.9590     3.1640    -0.1980 c3         1 9XX      -0.073400
     90 C32         17.3300     2.7380    -0.7080 c3         1 9XX      -0.074400
     91 C33         18.3720     3.8470    -0.6520 c3         1 9XX      -0.075400
     92 C34         19.7400     3.4140    -1.1650 c3         1 9XX      -0.074400
     93 C35         20.7770     4.5270    -1.1070 c3         1 9XX      -0.088100
     94 H43        -16.2760     2.8610     1.3400 hc         1 9XX       0.036700
     95 H52        -15.5490     4.3120     0.6870 hc         1 9XX       0.036700
     96 H55        -17.0690     4.1790    -1.2990 hc         1 9XX       0.036700
     97 H56        -17.7950     2.7270    -0.6470 hc         1 9XX       0.036700
     98 H57        -18.5480     4.0110     1.3690 hc         1 9XX       0.036700
     99 H58        -17.8260     5.4630     0.7130 hc         1 9XX       0.036700
    100 H59        -19.3460     5.3210    -1.2710 hc         1 9XX       0.036700
    101 H60        -20.0670     3.8690    -0.6150 hc         1 9XX       0.036700
    102 H62         15.6030     4.0190    -0.7840 hc         1 9XX       0.036700
    103 H63         16.0510     3.5230     0.8330 hc         1 9XX       0.036700
    104 H64         17.6810     1.8800    -0.1240 hc         1 9XX       0.036700
    105 H65         17.2370     2.3810    -1.7400 hc         1 9XX       0.036700
    106 H66         18.0220     4.7060    -1.2360 hc         1 9XX       0.036700
    107 H67         18.4680     4.2040     0.3790 hc         1 9XX       0.036700
    108 H68         20.0890     2.5560    -0.5820 hc         1 9XX       0.036700
    109 H69         19.6430     3.0590    -2.1960 hc         1 9XX       0.036700
    110 H70         20.4620     5.3910    -1.6960 hc         1 9XX       0.031367
    111 H71         20.9340     4.8690    -0.0820 hc         1 9XX       0.031367
    112 H72         21.7420     4.1980    -1.4960 hc         1 9XX       0.031367
    113 C          -20.5690     5.6610     0.4680 c3         1 9XX      -0.088100
    114 H61        -20.8460     5.1660     1.4010 hc         1 9XX       0.031367
    115 H73        -20.1300     6.6270     0.7290 hc         1 9XX       0.031367
    116 H74        -21.4860     5.8540    -0.0890 hc         1 9XX       0.031367
@<TRIPOS>BOND
     1     1    17 1   
     2     1    18 1   
     3     1    33 1   
     4     1    34 1   
     5     2    18 1   
     6     2    19 1   
     7     2    35 1   
     8     2    36 1   
     9     3     4 1   
    10     3    28 1   
    11     3    37 1   
    12     3    38 1   
    13     4     5 1   
    14     4    39 1   
    15     4    40 1   
    16     5    29 1   
    17     5    41 1   
    18     5    42 1   
    19     6    13 1   
    20     6    14 1   
    21     6    43 1   
    22     6    44 1   
    23     7     8 1   
    24     7    14 1   
    25     7    45 1   
    26     7    46 1   
    27     8     9 1   
    28     8    47 1   
    29     8    48 1   
    30     9    12 1   
    31     9    32 2   
    32    10    11 1   
    33    10    12 1   
    34    10    49 1   
    35    10    50 1   
    36    11    27 1   
    37    11    30 1   
    38    11    51 1   
    39    13    29 1   
    40    13    52 1   
    41    13    53 1   
    42    14    54 1   
    43    14    55 1   
    44    15    16 1   
    45    15    30 1   
    46    15    31 2   
    47    16    17 1   
    48    16    56 1   
    49    16    57 1   
    50    17    58 1   
    51    17    59 1   
    52    18    60 1   
    53    18    61 1   
    54    19    20 1   
    55    19    62 1   
    56    19    63 1   
    57    20    21 1   
    58    20    64 1   
    59    20    65 1   
    60    21    22 1   
    61    21    66 1   
    62    21    67 1   
    63    22    23 1   
    64    22    26 1   
    65    22    68 1   
    66    23    24 1   
    67    23    69 1   
    68    23    70 1   
    69    24    25 1   
    70    24    71 1   
    71    24    72 1   
    72    25    73 1   
    73    25    74 1   
    74    25    89 1   
    75    26    75 1   
    76    26    76 1   
    77    26    77 1   
    78    27    78 1   
    79    27    79 1   
    80    27    80 1   
    81    28    81 1   
    82    28    82 1   
    83    28    85 1   
    84    29    83 1   
    85    29    84 1   
    86    85    86 1   
    87    85    94 1   
    88    85    95 1   
    89    86    87 1   
    90    86    96 1   
    91    86    97 1   
    92    87    88 1   
    93    87    98 1   
    94    87    99 1   
    95    88   100 1   
    96    88   101 1   
    97    88   113 1   
    98    89    90 1   
    99    89   102 1   
   100    89   103 1   
   101    90    91 1   
   102    90   104 1   
   103    90   105 1   
   104    91    92 1   
   105    91   106 1   
   106    91   107 1   
   107    92    93 1   
   108    92   108 1   
   109    92   109 1   
   110    93   110 1   
   111    93   111 1   
   112    93   112 1   
   113   113   114 1   
   114   113   115 1   
   115   113   116 1   
@<TRIPOS>SUBSTRUCTURE
     1 9XX         1 TEMP              0 ****  ****    0 ROOT
