@<TRIPOS>MOLECULE
9XX
  116   115     1     0     0
SMALL
No Charge or Current Charge


@<TRIPOS>ATOM
      1 C21          3.7650    -2.5450     2.0160 c3         1 9XX      -0.074400
      2 C23          6.0770    -1.4220     1.8420 c3         1 9XX      -0.073400
      3 C6         -12.7930     2.5740    -0.2030 c3         1 9XX      -0.073400
      4 C7         -11.9900     1.3080    -0.5730 c3         1 9XX      -0.074400
      5 C8         -10.4680     1.5560    -0.6430 c3         1 9XX      -0.073400
      6 C11         -7.3390    -0.7270    -1.4520 c3         1 9XX      -0.075400
      7 C13         -5.0140    -1.7450    -1.8910 c3         1 9XX      -0.069400
      8 C14         -3.4880    -1.4950    -1.9600 c3         1 9XX      -0.136400
      9 C15         -2.7320    -2.7770    -2.3140 c          1 9XX       0.591100
     10 C16         -1.5750    -4.6730    -1.3730 c3         1 9XX       0.163600
     11 C17         -1.1830    -5.2510     0.0130 c3         1 9XX       0.175300
     12 O           -2.3010    -3.4370    -1.1950 os         1 9XX      -0.440100
     13 C10         -8.1420     0.5390    -1.0820 c3         1 9XX      -0.073400
     14 C12         -5.8170    -0.4780    -1.5220 c3         1 9XX      -0.075400
     15 C18          0.5590    -4.7850     1.6450 c          1 9XX       0.593100
     16 C19          1.4500    -3.6670     2.1900 c3         1 9XX      -0.136400
     17 C20          2.8360    -3.6680     1.5030 c3         1 9XX      -0.070400
     18 C22          5.1480    -2.5450     1.3300 c3         1 9XX      -0.075400
     19 C24          7.4600    -1.4220     1.1550 c3         1 9XX      -0.076400
     20 C25          8.3880    -0.2980     1.6660 c3         1 9XX      -0.072400
     21 C26          9.7750    -0.3040     0.9790 c3         1 9XX      -0.073400
     22 C27         10.7060     0.8860     1.3550 c3         1 9XX      -0.055700
     23 C28         11.9720     0.8830     0.4500 c3         1 9XX      -0.073400
     24 C29         12.8810     2.1300     0.5850 c3         1 9XX      -0.073400
     25 C30         14.0460     2.1360    -0.4280 c3         1 9XX      -0.075400
     26 C36         11.0620     0.8980     2.8650 c3         1 9XX      -0.086100
     27 C37         -2.3910    -5.4310     0.9650 c3         1 9XX      -0.110100
     28 C5         -14.3160     2.3260    -0.1330 c3         1 9XX      -0.074400
     29 C9          -9.6650     0.2900    -1.0130 c3         1 9XX      -0.075400
     30 O1          -0.2400    -4.3410     0.6220 os         1 9XX      -0.446100
     31 O2           0.5830    -5.9340     2.0640 o          1 9XX      -0.491000
     32 O6          -2.5480    -3.1630    -3.4610 o          1 9XX      -0.489000
     33 H1           3.2810    -1.5740     1.8510 hc         1 9XX       0.037700
     34 H2           3.9000    -2.6560     3.0990 hc         1 9XX       0.037700
     35 H3           5.5920    -0.4520     1.6760 hc         1 9XX       0.037700
     36 H4           6.2120    -1.5320     2.9250 hc         1 9XX       0.037700
     37 H5         -12.4450     2.9500     0.7670 hc         1 9XX       0.037200
     38 H6         -12.5900     3.3590    -0.9420 hc         1 9XX       0.037200
     39 H7         -12.1940     0.5230     0.1670 hc         1 9XX       0.037700
     40 H8         -12.3390     0.9320    -1.5430 hc         1 9XX       0.037700
     41 H9         -10.2640     2.3410    -1.3820 hc         1 9XX       0.037200
     42 H10        -10.1200     1.9330     0.3270 hc         1 9XX       0.037200
     43 H11         -7.5430    -1.5120    -0.7120 hc         1 9XX       0.039700
     44 H12         -7.6870    -1.1040    -2.4220 hc         1 9XX       0.039700
     45 H13         -5.3610    -2.1230    -2.8610 hc         1 9XX       0.054700
     46 H14         -5.2170    -2.5300    -1.1510 hc         1 9XX       0.054700
     47 H15         -3.2830    -0.7330    -2.7210 hc         1 9XX       0.071200
     48 H16         -3.1660    -1.1510    -0.9700 hc         1 9XX       0.071200
     49 H17         -0.6640    -4.5100    -1.9640 h1         1 9XX       0.060200
     50 H18         -2.1940    -5.4090    -1.9030 h1         1 9XX       0.060200
     51 H19         -0.7170    -6.2300    -0.1650 h1         1 9XX       0.071700
     52 H20         -7.7940     0.9160    -0.1120 hc         1 9XX       0.037200
     53 H21         -7.9390     1.3230    -1.8220 hc         1 9XX       0.037200
     54 H22         -5.6130     0.3060    -2.2620 hc         1 9XX       0.038200
     55 H23         -5.4690    -0.1010    -0.5520 hc         1 9XX       0.038200
     56 H24          0.9790    -2.7000     1.9800 hc         1 9XX       0.071700
     57 H25          1.5830    -3.8070     3.2690 hc         1 9XX       0.071700
     58 H26          2.7010    -3.5580     0.4200 hc         1 9XX       0.054200
     59 H27          3.3200    -4.6400     1.6680 hc         1 9XX       0.054200
     60 H28          5.6330    -3.5160     1.4960 hc         1 9XX       0.039700
     61 H29          5.0130    -2.4350     0.2470 hc         1 9XX       0.039700
     62 H30          7.9450    -2.3920     1.3210 hc         1 9XX       0.037200
     63 H31          7.3240    -1.3130     0.0720 hc         1 9XX       0.037200
     64 H32          7.9050     0.6730     1.4960 hc         1 9XX       0.038200
     65 H33          8.5100    -0.4140     2.7490 hc         1 9XX       0.038200
     66 H34         10.2850    -1.2480     1.2080 hc         1 9XX       0.036700
     67 H35          9.6150    -0.2930    -0.1070 hc         1 9XX       0.036700
     68 H36         10.1550     1.8100     1.1400 hc         1 9XX       0.044700
     69 H37         12.5640    -0.0170     0.6600 hc         1 9XX       0.036700
     70 H38         11.6540     0.8080    -0.5970 hc         1 9XX       0.036700
     71 H39         12.2760     3.0350     0.4440 hc         1 9XX       0.038200
     72 H40         13.3010     2.1750     1.5970 hc         1 9XX       0.038200
     73 H41         14.6480     1.2290    -0.2900 hc         1 9XX       0.036700
     74 H42         13.6390     2.0980    -1.4470 hc         1 9XX       0.036700
     75 H44         11.6180    -0.0060     3.1420 hc         1 9XX       0.031700
     76 H45         11.6740     1.7690     3.1230 hc         1 9XX       0.031700
     77 H46         10.1620     0.9530     3.4870 hc         1 9XX       0.031700
     78 H47         -2.8210    -4.4620     1.2440 hc         1 9XX       0.051033
     79 H48         -3.1740    -6.0260     0.4790 hc         1 9XX       0.051033
     80 H49         -2.0980    -5.9540     1.8830 hc         1 9XX       0.051033
     81 H50        -14.6640     1.9490    -1.1030 hc         1 9XX       0.036700
     82 H51        -14.5190     1.5410     0.6060 hc         1 9XX       0.036700
     83 H53         -9.8680    -0.4940    -0.2730 hc         1 9XX       0.037700
     84 H54        -10.0130    -0.0860    -1.9830 hc         1 9XX       0.037700
     85 C4         -15.1190     3.5920     0.2370 c3         1 9XX      -0.074400
     86 C3         -16.6410     3.3430     0.3070 c3         1 9XX      -0.074400
     87 C2         -17.4440     4.6100     0.6770 c3         1 9XX      -0.075400
     88 C1         -18.9670     4.3610     0.7470 c3         1 9XX      -0.075400
     89 C31         14.9580     3.3750    -0.2940 c3         1 9XX      -0.073400
     90 C32         16.1230     3.3820    -1.3080 c3         1 9XX      -0.074400
     91 C33         17.0340     4.6210    -1.1740 c3         1 9XX      -0.075400
     92 C34         18.1990     4.6280    -2.1870 c3         1 9XX      -0.074400
     93 C35         19.1090     5.8640    -2.0530 c3         1 9XX      -0.088100
     94 H43        -14.7710     3.9680     1.2080 hc         1 9XX       0.036700
     95 H52        -14.9150     4.3760    -0.5020 hc         1 9XX       0.036700
     96 H55        -16.9900     2.9670    -0.6640 hc         1 9XX       0.036700
     97 H56        -16.8450     2.5590     1.0460 hc         1 9XX       0.036700
     98 H57        -17.0960     4.9860     1.6480 hc         1 9XX       0.036700
     99 H58        -17.2410     5.3940    -0.0620 hc         1 9XX       0.036700
    100 H59        -19.3190     3.9870    -0.2220 hc         1 9XX       0.036700
    101 H60        -19.1740     3.5780     1.4870 hc         1 9XX       0.036700
    102 H62         14.3550     4.2820    -0.4320 hc         1 9XX       0.036700
    103 H63         15.3660     3.4140     0.7240 hc         1 9XX       0.036700
    104 H64         16.7250     2.4750    -1.1700 hc         1 9XX       0.036700
    105 H65         15.7140     3.3440    -2.3260 hc         1 9XX       0.036700
    106 H66         16.4320     5.5280    -1.3110 hc         1 9XX       0.036700
    107 H67         17.4430     4.6590    -0.1560 hc         1 9XX       0.036700
    108 H68         18.8050     3.7230    -2.0510 hc         1 9XX       0.036700
    109 H69         17.7950     4.5920    -3.2070 hc         1 9XX       0.036700
    110 H70         18.5380     6.7860    -2.2200 hc         1 9XX       0.031367
    111 H71         19.5580     5.9090    -1.0540 hc         1 9XX       0.031367
    112 H72         19.9190     5.8240    -2.7920 hc         1 9XX       0.031367
    113 C          -19.7680     5.6240     1.1170 c3         1 9XX      -0.088100
    114 H61        -19.4630     6.0040     2.1000 hc         1 9XX       0.031367
    115 H73        -19.6090     6.4160     0.3750 hc         1 9XX       0.031367
    116 H74        -20.8410     5.3990     1.1540 hc         1 9XX       0.031367
@<TRIPOS>BOND
     1     1    17 1   
     2     1    18 1   
     3     1    33 1   
     4     1    34 1   
     5     2    18 1   
     6     2    19 1   
     7     2    35 1   
     8     2    36 1   
     9     3     4 1   
    10     3    28 1   
    11     3    37 1   
    12     3    38 1   
    13     4     5 1   
    14     4    39 1   
    15     4    40 1   
    16     5    29 1   
    17     5    41 1   
    18     5    42 1   
    19     6    13 1   
    20     6    14 1   
    21     6    43 1   
    22     6    44 1   
    23     7     8 1   
    24     7    14 1   
    25     7    45 1   
    26     7    46 1   
    27     8     9 1   
    28     8    47 1   
    29     8    48 1   
    30     9    12 1   
    31     9    32 2   
    32    10    11 1   
    33    10    12 1   
    34    10    49 1   
    35    10    50 1   
    36    11    27 1   
    37    11    30 1   
    38    11    51 1   
    39    13    29 1   
    40    13    52 1   
    41    13    53 1   
    42    14    54 1   
    43    14    55 1   
    44    15    16 1   
    45    15    30 1   
    46    15    31 2   
    47    16    17 1   
    48    16    56 1   
    49    16    57 1   
    50    17    58 1   
    51    17    59 1   
    52    18    60 1   
    53    18    61 1   
    54    19    20 1   
    55    19    62 1   
    56    19    63 1   
    57    20    21 1   
    58    20    64 1   
    59    20    65 1   
    60    21    22 1   
    61    21    66 1   
    62    21    67 1   
    63    22    23 1   
    64    22    26 1   
    65    22    68 1   
    66    23    24 1   
    67    23    69 1   
    68    23    70 1   
    69    24    25 1   
    70    24    71 1   
    71    24    72 1   
    72    25    73 1   
    73    25    74 1   
    74    25    89 1   
    75    26    75 1   
    76    26    76 1   
    77    26    77 1   
    78    27    78 1   
    79    27    79 1   
    80    27    80 1   
    81    28    81 1   
    82    28    82 1   
    83    28    85 1   
    84    29    83 1   
    85    29    84 1   
    86    85    86 1   
    87    85    94 1   
    88    85    95 1   
    89    86    87 1   
    90    86    96 1   
    91    86    97 1   
    92    87    88 1   
    93    87    98 1   
    94    87    99 1   
    95    88   100 1   
    96    88   101 1   
    97    88   113 1   
    98    89    90 1   
    99    89   102 1   
   100    89   103 1   
   101    90    91 1   
   102    90   104 1   
   103    90   105 1   
   104    91    92 1   
   105    91   106 1   
   106    91   107 1   
   107    92    93 1   
   108    92   108 1   
   109    92   109 1   
   110    93   110 1   
   111    93   111 1   
   112    93   112 1   
   113   113   114 1   
   114   113   115 1   
   115   113   116 1   
@<TRIPOS>SUBSTRUCTURE
     1 9XX         1 TEMP              0 ****  ****    0 ROOT
