@<TRIPOS>MOLECULE
9XY
   55    57     1     0     0
SMALL
abcg2


@<TRIPOS>ATOM
      1 CBC          8.0310     1.3190     0.1510 c3         1 9XY       0.143100
      2 NBB          6.6280     1.1840    -0.1790 n7         1 9XY      -0.844400
      3 CBA          5.8710     2.3760     0.1360 c3         1 9XY       0.154800
      4 CAZ          4.4100     2.2390    -0.2220 c3         1 9XY       0.164600
      5 OAY          3.8370     1.2150     0.5730 os         1 9XY      -0.328100
      6 CAN          2.5360     0.9150     0.4010 ca         1 9XY       0.147100
      7 CAM          1.6960     1.5370    -0.5190 ca         1 9XY      -0.178500
      8 CAL          0.3650     1.1490    -0.6080 ca         1 9XY      -0.056500
      9 CAO          2.0170    -0.0880     1.2240 ca         1 9XY      -0.178500
     10 CAP          0.6940    -0.4660     1.1140 ca         1 9XY      -0.056500
     11 CAI         -0.1620     0.1350     0.1860 ca         1 9XY      -0.093800
     12 CAH         -1.5890    -0.2470     0.0710 ce         1 9XY       0.010600
     13 CAE         -2.5350     0.8960     0.0340 ca         1 9XY      -0.088800
     14 CAD         -2.5260     1.8600     1.0440 ca         1 9XY      -0.058000
     15 CAC         -3.3950     2.9360     1.0260 ca         1 9XY      -0.180500
     16 CAB         -4.2940     3.0880    -0.0290 ca         1 9XY       0.139100
     17 OAG         -5.1200     4.1530    -0.0060 oh         1 9XY      -0.533100
     18 CAA         -4.3010     2.1510    -1.0580 ca         1 9XY      -0.180500
     19 CAF         -3.4300     1.0720    -1.0180 ca         1 9XY      -0.058000
     20 CAJ         -2.0060    -1.5290     0.0200 cf         1 9XY      -0.045400
     21 CAQ         -3.4540    -1.9390     0.0770 c3         1 9XY      -0.037200
     22 CAS         -3.9650    -2.5350    -1.2330 c3         1 9XY      -0.085100
     23 CAR         -1.0500    -2.6550    -0.1180 ca         1 9XY      -0.051800
     24 CAT         -0.1440    -2.6930    -1.1790 ca         1 9XY      -0.098000
     25 CAU          0.7330    -3.7560    -1.3290 ca         1 9XY      -0.112000
     26 CAV          0.7240    -4.8050    -0.4180 ca         1 9XY      -0.109000
     27 CAW         -0.1790    -4.7840     0.6370 ca         1 9XY      -0.112000
     28 CAX         -1.0630    -3.7240     0.7790 ca         1 9XY      -0.098000
     29 H1           8.1490     1.4130     1.2320 h1         1 9XY       0.030033
     30 H2           8.5730     0.4270    -0.1630 h1         1 9XY       0.030033
     31 H3           8.5200     2.1910    -0.3080 h1         1 9XY       0.030033
     32 H4           6.5410     0.9940    -1.1710 hn         1 9XY       0.405000
     33 H6           5.9660     2.5820     1.2070 h1         1 9XY       0.040200
     34 H7           6.2450     3.2750    -0.3800 h1         1 9XY       0.040200
     35 H8           3.9030     3.1930    -0.0440 h1         1 9XY       0.033700
     36 H9           4.3040     2.0020    -1.2880 h1         1 9XY       0.033700
     37 H10          2.0530     2.3250    -1.1680 ha         1 9XY       0.121000
     38 H11         -0.2720     1.6500    -1.3270 ha         1 9XY       0.117000
     39 H12          2.6600    -0.5610     1.9550 ha         1 9XY       0.121000
     40 H13          0.3140    -1.2370     1.7710 ha         1 9XY       0.117000
     41 H14         -1.8290     1.7640     1.8680 ha         1 9XY       0.119000
     42 H15         -3.3790     3.6650     1.8270 ha         1 9XY       0.120500
     43 H16         -5.6840     4.1560    -0.7870 ho         1 9XY       0.464000
     44 H17         -4.9830     2.2600    -1.8940 ha         1 9XY       0.120500
     45 H18         -3.4440     0.3620    -1.8350 ha         1 9XY       0.119000
     46 H19         -3.5710    -2.6880     0.8670 hc         1 9XY       0.049700
     47 H20         -4.0800    -1.0960     0.3690 hc         1 9XY       0.049700
     48 H21         -5.0060    -2.8450    -1.1340 hc         1 9XY       0.033700
     49 H22         -3.9090    -1.8120    -2.0480 hc         1 9XY       0.033700
     50 H23         -3.3860    -3.4110    -1.5280 hc         1 9XY       0.033700
     51 H24         -0.1330    -1.8820    -1.8950 ha         1 9XY       0.114000
     52 H25          1.4250    -3.7670    -2.1620 ha         1 9XY       0.111500
     53 H26          1.4100    -5.6340    -0.5320 ha         1 9XY       0.111000
     54 H27         -0.1960    -5.5960     1.3530 ha         1 9XY       0.111500
     55 H28         -1.7560    -3.7230     1.6120 ha         1 9XY       0.114000
@<TRIPOS>BOND
     1     1     2 1   
     2     1    29 1   
     3     1    30 1   
     4     1    31 1   
     5     2     3 1   
     6     2    32 1   
     7     3     4 1   
     8     3    33 1   
     9     3    34 1   
    10     4     5 1   
    11     4    35 1   
    12     4    36 1   
    13     5     6 1   
    14     6     7 ar  
    15     6     9 ar  
    16     7     8 ar  
    17     7    37 1   
    18     8    11 ar  
    19     8    38 1   
    20     9    10 ar  
    21     9    39 1   
    22    10    11 ar  
    23    10    40 1   
    24    11    12 1   
    25    12    13 1   
    26    12    20 2   
    27    13    14 ar  
    28    13    19 ar  
    29    14    15 ar  
    30    14    41 1   
    31    15    16 ar  
    32    15    42 1   
    33    16    17 1   
    34    16    18 ar  
    35    17    43 1   
    36    18    19 ar  
    37    18    44 1   
    38    19    45 1   
    39    20    21 1   
    40    20    23 1   
    41    21    22 1   
    42    21    46 1   
    43    21    47 1   
    44    22    48 1   
    45    22    49 1   
    46    22    50 1   
    47    23    24 ar  
    48    23    28 ar  
    49    24    25 ar  
    50    24    51 1   
    51    25    26 ar  
    52    25    52 1   
    53    26    27 ar  
    54    26    53 1   
    55    27    28 ar  
    56    27    54 1   
    57    28    55 1   
@<TRIPOS>SUBSTRUCTURE
     1 9XY         1 TEMP              0 ****  ****    0 ROOT
