@<TRIPOS>MOLECULE
9XY
   55    57     1     0     0
SMALL
No Charge or Current Charge


@<TRIPOS>ATOM
      1 CBC          8.1790     1.3810     0.1660 c3         1 9XY       0.143100
      2 NBB          6.7530     1.2790    -0.2020 n7         1 9XY      -0.844400
      3 CBA          5.9380     2.4890     0.0860 c3         1 9XY       0.154800
      4 CAZ          4.4500     2.3280    -0.3300 c3         1 9XY       0.164600
      5 OAY          3.8380     1.3120     0.4890 os         1 9XY      -0.328100
      6 CAN          2.5110     0.9590     0.3520 ca         1 9XY       0.147100
      7 CAM          1.6550     1.5640    -0.5920 ca         1 9XY      -0.178500
      8 CAL          0.3100     1.1620    -0.6830 ca         1 9XY      -0.056500
      9 CAO          2.0070    -0.0410     1.1980 ca         1 9XY      -0.178500
     10 CAP          0.6640    -0.4430     1.1070 ca         1 9XY      -0.056500
     11 CAI         -0.1940     0.1520     0.1600 ca         1 9XY      -0.093800
     12 CAH         -1.6260    -0.2680     0.0620 ce         1 9XY       0.010600
     13 CAE         -2.5520     0.9030     0.0760 ca         1 9XY      -0.088800
     14 CAD         -2.5750     1.7700     1.1850 ca         1 9XY      -0.058000
     15 CAC         -3.4360     2.8820     1.1960 ca         1 9XY      -0.180500
     16 CAB         -4.2710     3.1360     0.0990 ca         1 9XY       0.139100
     17 OAG         -5.1010     4.2160     0.1190 oh         1 9XY      -0.533100
     18 CAA         -4.2460     2.2820    -1.0150 ca         1 9XY      -0.180500
     19 CAF         -3.3860     1.1690    -1.0280 ca         1 9XY      -0.058000
     20 CAJ         -2.0330    -1.5790     0.0130 cf         1 9XY      -0.045400
     21 CAQ         -3.5120    -1.9810    -0.0210 c3         1 9XY      -0.037200
     22 CAS         -3.9450    -2.6110    -1.3600 c3         1 9XY      -0.085100
     23 CAR         -1.1200    -2.7430    -0.0860 ca         1 9XY      -0.051800
     24 CAT         -0.1190    -2.7640    -1.0790 ca         1 9XY      -0.098000
     25 CAU          0.7580    -3.8570    -1.1890 ca         1 9XY      -0.112000
     26 CAV          0.6430    -4.9420    -0.3050 ca         1 9XY      -0.109000
     27 CAW         -0.3490    -4.9310     0.6890 ca         1 9XY      -0.112000
     28 CAX         -1.2260    -3.8380     0.7990 ca         1 9XY      -0.098000
     29 H1           8.2920     1.5780     1.2410 h1         1 9XY       0.030033
     30 H2           8.7050     0.4450    -0.0650 h1         1 9XY       0.030033
     31 H3           8.6700     2.1930    -0.3860 h1         1 9XY       0.030033
     32 H4           6.6950     1.0810    -1.2100 hn         1 9XY       0.405000
     33 H6           5.9760     2.7310     1.1570 h1         1 9XY       0.040200
     34 H7           6.3490     3.3530    -0.4550 h1         1 9XY       0.040200
     35 H8           3.9400     3.2890    -0.1880 h1         1 9XY       0.033700
     36 H9           4.3940     2.0610    -1.3930 h1         1 9XY       0.033700
     37 H10          2.0110     2.3420    -1.2610 ha         1 9XY       0.121000
     38 H11         -0.3400     1.6330    -1.4180 ha         1 9XY       0.117000
     39 H12          2.6620    -0.5080     1.9300 ha         1 9XY       0.121000
     40 H13          0.2880    -1.2140     1.7760 ha         1 9XY       0.117000
     41 H14         -1.9280     1.5790     2.0380 ha         1 9XY       0.119000
     42 H15         -3.4520     3.5460     2.0560 ha         1 9XY       0.120500
     43 H16         -5.6040     4.2360    -0.7240 ho         1 9XY       0.464000
     44 H17         -4.8860     2.4740    -1.8730 ha         1 9XY       0.120500
     45 H18         -3.3630     0.5160    -1.8970 ha         1 9XY       0.119000
     46 H19         -3.7390    -2.6890     0.7840 hc         1 9XY       0.049700
     47 H20         -4.1670    -1.1260     0.1810 hc         1 9XY       0.049700
     48 H21         -5.0160    -2.8420    -1.3450 hc         1 9XY       0.033700
     49 H22         -3.7520    -1.9230    -2.1920 hc         1 9XY       0.033700
     50 H23         -3.3980    -3.5420    -1.5490 hc         1 9XY       0.033700
     51 H24         -0.0240    -1.9320    -1.7720 ha         1 9XY       0.114000
     52 H25          1.5260    -3.8620    -1.9590 ha         1 9XY       0.111500
     53 H26          1.3220    -5.7880    -0.3890 ha         1 9XY       0.111000
     54 H27         -0.4360    -5.7690     1.3780 ha         1 9XY       0.111500
     55 H28         -1.9760    -3.8410     1.5860 ha         1 9XY       0.114000
@<TRIPOS>BOND
     1     1     2 1   
     2     1    29 1   
     3     1    30 1   
     4     1    31 1   
     5     2     3 1   
     6     2    32 1   
     7     3     4 1   
     8     3    33 1   
     9     3    34 1   
    10     4     5 1   
    11     4    35 1   
    12     4    36 1   
    13     5     6 1   
    14     6     7 ar  
    15     6     9 ar  
    16     7     8 ar  
    17     7    37 1   
    18     8    11 ar  
    19     8    38 1   
    20     9    10 ar  
    21     9    39 1   
    22    10    11 ar  
    23    10    40 1   
    24    11    12 1   
    25    12    13 1   
    26    12    20 2   
    27    13    14 ar  
    28    13    19 ar  
    29    14    15 ar  
    30    14    41 1   
    31    15    16 ar  
    32    15    42 1   
    33    16    17 1   
    34    16    18 ar  
    35    17    43 1   
    36    18    19 ar  
    37    18    44 1   
    38    19    45 1   
    39    20    21 1   
    40    20    23 1   
    41    21    22 1   
    42    21    46 1   
    43    21    47 1   
    44    22    48 1   
    45    22    49 1   
    46    22    50 1   
    47    23    24 ar  
    48    23    28 ar  
    49    24    25 ar  
    50    24    51 1   
    51    25    26 ar  
    52    25    52 1   
    53    26    27 ar  
    54    26    53 1   
    55    27    28 ar  
    56    27    54 1   
    57    28    55 1   
@<TRIPOS>SUBSTRUCTURE
     1 9XY         1 TEMP              0 ****  ****    0 ROOT
