@<TRIPOS>MOLECULE
9XZ
   28    30     1     0     0
SMALL
bcc


@<TRIPOS>ATOM
      1 C1          -3.8810    -0.7940    -0.1620 cc         1 9XZ      -0.145000
      2 C2          -0.1590     0.0860     0.0130 ca         1 9XZ       0.000000
      3 C3          -1.1420    -2.0540     0.0310 ca         1 9XZ       0.491200
      4 C4          -4.9870    -0.0070    -0.1190 cd         1 9XZ      -0.120100
      5 C5          -2.9120     1.2680     0.2110 cd         1 9XZ      -0.121100
      6 C6          -2.6620    -0.0660     0.0280 cc         1 9XZ      -0.031000
      7 C7          -1.3270    -0.6720     0.0230 ca         1 9XZ      -0.206300
      8 C8           1.0920    -0.5070     0.0160 ca         1 9XZ      -0.339800
      9 C9           1.1510    -1.9260     0.0240 ca         1 9XZ       0.729200
     10 C10          2.2770     0.3350     0.0010 cc         1 9XZ       0.595500
     11 N12          0.0320    -2.6550     0.0300 nb         1 9XZ      -0.771000
     12 N13          2.2420     1.6810     0.0040 nc         1 9XZ      -0.390000
     13 N14          3.5270    -0.0970    -0.0190 nd         1 9XZ      -0.575800
     14 N15          3.4700     2.0800    -0.0150 nd         1 9XZ      -0.170800
     15 N16          4.2130     1.0170    -0.0290 na         1 9XZ       0.279900
     16 N17          2.3080    -2.6090     0.0360 nv         1 9XZ      -0.970500
     17 S18         -4.5820     1.6330     0.1530 ss         1 9XZ      -0.080800
     18 H1          -3.9370    -1.8600    -0.3310 ha         1 9XZ       0.149000
     19 H4          -6.0160    -0.3090    -0.2360 h4         1 9XZ       0.167000
     20 H2          -0.2140     1.1670    -0.0030 ha         1 9XZ       0.154000
     21 H3          -1.9970    -2.7200     0.0430 h4         1 9XZ       0.017100
     22 H5          -2.2030     2.0620     0.3870 h4         1 9XZ       0.170000
     23 H171         3.1990    -2.1480    -0.0280 hn         1 9XZ       0.452300
     24 H172         2.2750    -3.6120    -0.0140 hn         1 9XZ       0.452300
     25 H111         6.0250     0.5190    -0.9160 h1         1 9XZ       0.071700
     26 H112         5.9670     2.0930    -0.0920 h1         1 9XZ       0.071700
     27 H113         6.0450     0.5940     0.8610 h1         1 9XZ       0.071700
     28 C11          5.6580     1.0540    -0.0440 c3         1 9XZ       0.046600
@<TRIPOS>BOND
     1     1     4 2   
     2     1     6 1   
     3     1    18 1   
     4     2     7 ar  
     5     2     8 ar  
     6     2    20 1   
     7     3     7 ar  
     8     3    11 ar  
     9     3    21 1   
    10     4    17 1   
    11     4    19 1   
    12     5     6 2   
    13     5    17 1   
    14     5    22 1   
    15     6     7 1   
    16     8     9 ar  
    17     8    10 1   
    18     9    11 ar  
    19     9    16 1   
    20    10    12 1   
    21    10    13 2   
    22    12    14 2   
    23    13    15 1   
    24    14    15 1   
    25    15    28 1   
    26    16    23 1   
    27    16    24 1   
    28    25    28 1   
    29    26    28 1   
    30    27    28 1   
@<TRIPOS>SUBSTRUCTURE
     1 9XZ         1 TEMP              0 ****  ****    0 ROOT
