@<TRIPOS>MOLECULE
9XZ
   28    30     1     0     0
SMALL
No Charge or Current Charge


@<TRIPOS>ATOM
      1 C1          -3.9090    -0.8250    -0.0930 cc         1 9XZ      -0.127000
      2 C2          -0.1570     0.1300     0.0710 ca         1 9XZ       0.018000
      3 C3          -1.1290    -2.0720    -0.0210 ca         1 9XZ       0.425900
      4 C4          -5.0260    -0.0340    -0.1040 cd         1 9XZ      -0.247000
      5 C5          -2.8780     1.2560     0.0280 cd         1 9XZ      -0.248000
      6 C6          -2.6830    -0.1060    -0.0200 cc         1 9XZ      -0.031000
      7 C7          -1.3190    -0.6730     0.0130 ca         1 9XZ      -0.141000
      8 C8           1.1150    -0.4840     0.0960 ca         1 9XZ      -0.274500
      9 C9           1.1400    -1.8830     0.0700 ca         1 9XZ       0.663900
     10 C10          2.3360     0.3250     0.1360 cc         1 9XZ       0.595500
     11 N12          0.0810    -2.6690     0.0080 nb         1 9XZ      -0.771000
     12 N13          2.2720     1.6500     0.4580 nc         1 9XZ      -0.390000
     13 N14          3.5410    -0.1270    -0.1340 nd         1 9XZ      -0.575800
     14 N15          3.4930     2.0980     0.4040 nd         1 9XZ      -0.170800
     15 N16          4.2530     1.0200     0.0430 na         1 9XZ       0.250600
     16 N17          2.2220    -2.6520     0.1140 nv         1 9XZ      -1.080900
     17 S18         -4.5990     1.6790    -0.0210 ss         1 9XZ       0.209000
     18 H1          -3.9590    -1.9080    -0.1370 ha         1 9XZ       0.131000
     19 H4          -6.0650    -0.3370    -0.1540 h4         1 9XZ       0.149000
     20 H2          -0.2320     1.2130     0.0860 ha         1 9XZ       0.136000
     21 H3          -1.9750    -2.7550    -0.0690 h4         1 9XZ       0.017100
     22 H5          -2.1560     2.0580     0.0900 h4         1 9XZ       0.152000
     23 H171         3.0910    -2.1920    -0.1420 hn         1 9XZ       0.507500
     24 H172         2.0820    -3.5940    -0.2280 hn         1 9XZ       0.507500
     25 H111         6.0410     0.3010    -0.8080 h1         1 9XZ       0.071700
     26 H112         5.9800     2.0690    -0.5500 h1         1 9XZ       0.071700
     27 H113         6.1950     0.9690     0.8450 h1         1 9XZ       0.071700
     28 C11          5.7080     1.0940    -0.1290 c3         1 9XZ       0.075900
@<TRIPOS>BOND
     1     1     4 2   
     2     1     6 1   
     3     1    18 1   
     4     2     7 ar  
     5     2     8 ar  
     6     2    20 1   
     7     3     7 ar  
     8     3    11 ar  
     9     3    21 1   
    10     4    17 1   
    11     4    19 1   
    12     5     6 2   
    13     5    17 1   
    14     5    22 1   
    15     6     7 1   
    16     8     9 ar  
    17     8    10 1   
    18     9    11 ar  
    19     9    16 1   
    20    10    12 1   
    21    10    13 2   
    22    12    14 2   
    23    13    15 1   
    24    14    15 1   
    25    15    28 1   
    26    16    23 1   
    27    16    24 1   
    28    25    28 1   
    29    26    28 1   
    30    27    28 1   
@<TRIPOS>SUBSTRUCTURE
     1 9XZ         1 TEMP              0 ****  ****    0 ROOT
