@<TRIPOS>MOLECULE
9Y0
  124   123     1     0     0
SMALL
abcg2


@<TRIPOS>ATOM
      1 N            3.0170     0.5330    -1.5020 n8         1 9Y0      -0.974200
      2 C            0.1230    -5.1340     0.1940 c3         1 9Y0       0.175600
      3 O            1.4420    -3.4230    -4.4440 o          1 9Y0      -0.821000
      4 C1          -1.0540    -4.9750    -0.7430 c3         1 9Y0       0.152300
      5 C10          6.1260     0.7360     2.4820 c3         1 9Y0      -0.075400
      6 C11          7.3920     0.9350     3.3050 c3         1 9Y0      -0.072400
      7 C12          7.9970     2.3320     3.1490 c3         1 9Y0      -0.045200
      8 C13          9.2030     2.5150     4.0190 c2         1 9Y0      -0.211200
      9 C14         10.4810     2.4240     3.6520 c2         1 9Y0      -0.221200
     10 C15         11.0230     2.1590     2.2820 c3         1 9Y0      -0.043200
     11 C16         12.0620     3.1950     1.8530 c3         1 9Y0      -0.071400
     12 C17         12.6740     2.8910     0.4920 c3         1 9Y0      -0.076400
     13 C18         13.7350     3.8990     0.0720 c3         1 9Y0      -0.073400
     14 C19         14.3480     3.5960    -1.2900 c3         1 9Y0      -0.075400
     15 C2          -0.6910    -4.6930    -2.1920 c3         1 9Y0       0.224600
     16 C20         15.4180     4.5980    -1.7040 c3         1 9Y0      -0.074400
     17 C22         -3.8770    -2.7470     0.1050 c3         1 9Y0      -0.141400
     18 C23         -5.3740    -2.7120    -0.1600 c3         1 9Y0      -0.067400
     19 C24         -6.0160    -1.4190     0.3290 c3         1 9Y0      -0.075400
     20 C25         -7.5150    -1.3770     0.0610 c3         1 9Y0      -0.075400
     21 C26         -8.1750    -0.0710     0.4840 c3         1 9Y0      -0.074400
     22 C27         -9.6720    -0.0490     0.2030 c3         1 9Y0      -0.075400
     23 C28        -10.3480     1.2640     0.5800 c3         1 9Y0      -0.073400
     24 C29        -11.8440     1.2650     0.2880 c3         1 9Y0      -0.074400
     25 C3           1.4600    -0.8280    -2.8360 c3         1 9Y0       0.242600
     26 C30        -12.5340     2.5780     0.6330 c3         1 9Y0      -0.073400
     27 C31        -14.0280     2.5620     0.3360 c3         1 9Y0      -0.074400
     28 C32        -14.7290     3.8750     0.6620 c3         1 9Y0      -0.074400
     29 C33        -16.2220     3.8460     0.3630 c3         1 9Y0      -0.074400
     30 C34        -16.9290     5.1570     0.6830 c3         1 9Y0      -0.075400
     31 C35        -18.4230     5.1250     0.3840 c3         1 9Y0      -0.075400
     32 C36        -19.1220     6.4370     0.7090 c3         1 9Y0      -0.088100
     33 C37         16.0350     4.2970    -3.0640 c3         1 9Y0      -0.075400
     34 C38         17.1020     5.3070    -3.4660 c3         1 9Y0      -0.088100
     35 C4           1.6190     0.2510    -1.7860 c3         1 9Y0       0.136800
     36 C5           1.9540    -3.8450     0.9340 c          1 9Y0       0.620100
     37 C6           2.4800    -2.4410     1.0190 c3         1 9Y0      -0.149400
     38 C7           3.7600    -2.3000     1.8250 c3         1 9Y0      -0.057400
     39 C8           4.2830    -0.8690     1.7870 c3         1 9Y0      -0.081400
     40 C9           5.5660    -0.6770     2.5830 c3         1 9Y0      -0.072400
     41 O1           2.0130    -2.0390    -2.3580 os         1 9Y0      -0.581400
     42 O2           2.3490    -4.5260    -2.2650 o          1 9Y0      -0.821000
     43 O3          -0.0070    -3.4750    -2.3440 os         1 9Y0      -0.596400
     44 O4           2.5410    -4.8350     1.2990 o          1 9Y0      -0.512000
     45 O6          -3.7450    -4.8580    -1.0480 o          1 9Y0      -0.515000
     46 O7          -1.8860    -3.9370    -0.2120 os         1 9Y0      -0.420100
     47 P            1.5270    -3.4770    -2.9470 p5         1 9Y0       1.392800
     48 H1           3.4220     1.0490    -2.2730 hn         1 9Y0       0.374000
     49 H2           3.0830     1.1420    -0.6980 hn         1 9Y0       0.374000
     50 H4          -0.2160    -5.5460     1.1490 h1         1 9Y0       0.055200
     51 H5           0.8240    -5.8440    -0.2490 h1         1 9Y0       0.055200
     52 H6          -1.5870    -5.9310    -0.7320 h1         1 9Y0       0.049700
     53 H7           5.3650     1.4550     2.8030 hc         1 9Y0       0.035700
     54 H8           6.3350     0.9660     1.4310 hc         1 9Y0       0.035700
     55 H9           7.1750     0.7450     4.3620 hc         1 9Y0       0.037700
     56 H10          8.1420     0.1930     3.0110 hc         1 9Y0       0.037700
     57 H11          8.2380     2.5000     2.0970 hc         1 9Y0       0.042700
     58 H12          7.2420     3.0780     3.4150 hc         1 9Y0       0.042700
     59 H13          8.9950     2.6940     5.0700 ha         1 9Y0       0.161000
     60 H14         11.2360     2.5460     4.4260 ha         1 9Y0       0.159000
     61 H15         11.4960     1.1700     2.2750 hc         1 9Y0       0.047700
     62 H16         10.2200     2.1160     1.5410 hc         1 9Y0       0.047700
     63 H17         11.6010     4.1880     1.8340 hc         1 9Y0       0.035700
     64 H18         12.8560     3.2420     2.6060 hc         1 9Y0       0.035700
     65 H19         13.1130     1.8870     0.5090 hc         1 9Y0       0.039700
     66 H20         11.8810     2.8600    -0.2640 hc         1 9Y0       0.039700
     67 H21         13.2980     4.9040     0.0570 hc         1 9Y0       0.034700
     68 H22         14.5280     3.9260     0.8280 hc         1 9Y0       0.034700
     69 H23         14.7790     2.5880    -1.2770 hc         1 9Y0       0.038700
     70 H24         13.5570     3.5760    -2.0470 hc         1 9Y0       0.038700
     71 H25         -0.1150    -5.5530    -2.5490 h1         1 9Y0       0.032700
     72 H26         -1.6070    -4.6670    -2.7900 h1         1 9Y0       0.032700
     73 H27         14.9880     5.6060    -1.7170 hc         1 9Y0       0.035200
     74 H28         16.2090     4.6190    -0.9460 hc         1 9Y0       0.035200
     75 H29         -3.6720    -2.6950     1.1790 hc         1 9Y0       0.071200
     76 H30         -3.3930    -1.8650    -0.3260 hc         1 9Y0       0.071200
     77 H31         -5.5600    -2.8200    -1.2320 hc         1 9Y0       0.050700
     78 H32         -5.8570    -3.5650     0.3240 hc         1 9Y0       0.050700
     79 H33         -5.8320    -1.2960     1.4020 hc         1 9Y0       0.036700
     80 H34         -5.5340    -0.5670    -0.1620 hc         1 9Y0       0.036700
     81 H35         -7.6930    -1.5400    -1.0080 hc         1 9Y0       0.037700
     82 H36         -7.9990    -2.2130     0.5780 hc         1 9Y0       0.037700
     83 H37         -8.0020     0.1000     1.5520 hc         1 9Y0       0.036700
     84 H38         -7.6940     0.7640    -0.0380 hc         1 9Y0       0.036700
     85 H39         -9.8400    -0.2480    -0.8610 hc         1 9Y0       0.036700
     86 H40        -10.1540    -0.8730     0.7420 hc         1 9Y0       0.036700
     87 H41        -10.1850     1.4680     1.6440 hc         1 9Y0       0.036700
     88 H42         -9.8710     2.0870     0.0370 hc         1 9Y0       0.036700
     89 H43        -12.0030     1.0400    -0.7720 hc         1 9Y0       0.036700
     90 H44        -12.3210     0.4480     0.8420 hc         1 9Y0       0.036700
     91 H45          0.3940    -0.9290    -3.0630 h1         1 9Y0       0.018200
     92 H46          1.9560    -0.5240    -3.7650 h1         1 9Y0       0.018200
     93 H47        -12.3770     2.8070     1.6930 hc         1 9Y0       0.037200
     94 H48        -12.0610     3.3950     0.0760 hc         1 9Y0       0.037200
     95 H49        -14.1820     2.3230    -0.7230 hc         1 9Y0       0.036700
     96 H50        -14.5000     1.7490     0.8990 hc         1 9Y0       0.036700
     97 H51        -14.5760     4.1170     1.7200 hc         1 9Y0       0.037200
     98 H52        -14.2600     4.6880     0.0970 hc         1 9Y0       0.037200
     99 H53        -16.3740     3.6010    -0.6940 hc         1 9Y0       0.036700
    100 H54        -16.6900     3.0340     0.9300 hc         1 9Y0       0.036700
    101 H55        -16.7790     5.4040     1.7410 hc         1 9Y0       0.036700
    102 H56        -16.4630     5.9710     0.1160 hc         1 9Y0       0.036700
    103 H57        -18.5730     4.8800    -0.6720 hc         1 9Y0       0.036200
    104 H58        -18.8870     4.3110     0.9500 hc         1 9Y0       0.036200
    105 H59        -18.6920     7.2640     0.1400 hc         1 9Y0       0.030367
    106 H60        -20.1870     6.3950     0.4780 hc         1 9Y0       0.030367
    107 H61        -19.0230     6.6840     1.7680 hc         1 9Y0       0.030367
    108 H62         16.4670     3.2910    -3.0500 hc         1 9Y0       0.037700
    109 H63         15.2470     4.2760    -3.8230 hc         1 9Y0       0.037700
    110 H64         16.6860     6.3140    -3.5240 hc         1 9Y0       0.029700
    111 H65         17.9160     5.3310    -2.7390 hc         1 9Y0       0.029700
    112 H66         17.5340     5.0710    -4.4390 hc         1 9Y0       0.029700
    113 H67          1.1380    -0.0850    -0.8640 h1         1 9Y0       0.017200
    114 H68          1.0520     1.1270    -2.1320 h1         1 9Y0       0.017200
    115 H69          2.6330    -2.0870    -0.0050 hc         1 9Y0       0.089200
    116 H70          1.6950    -1.7990     1.4290 hc         1 9Y0       0.089200
    117 H71          3.5890    -2.6020     2.8630 hc         1 9Y0       0.044200
    118 H72          4.5260    -2.9740     1.4300 hc         1 9Y0       0.044200
    119 H73          4.4440    -0.5770     0.7440 hc         1 9Y0       0.044200
    120 H74          3.5130    -0.1900     2.1710 hc         1 9Y0       0.044200
    121 H75          6.3220    -1.3890     2.2340 hc         1 9Y0       0.035200
    122 H76          5.3830    -0.9220     3.6350 hc         1 9Y0       0.035200
    123 C21         -3.1940    -3.9660    -0.4520 c          1 9Y0       0.599100
    124 O5           0.7350    -3.8710     0.4110 os         1 9Y0      -0.416100
@<TRIPOS>BOND
     1     1    35 1   
     2     1    48 1   
     3     1    49 1   
     4     2     4 1   
     5     2    50 1   
     6     2    51 1   
     7     2   124 1   
     8     3    47 1   
     9     4    15 1   
    10     4    46 1   
    11     4    52 1   
    12     5     6 1   
    13     5    40 1   
    14     5    53 1   
    15     5    54 1   
    16     6     7 1   
    17     6    55 1   
    18     6    56 1   
    19     7     8 1   
    20     7    57 1   
    21     7    58 1   
    22     8     9 2   
    23     8    59 1   
    24     9    10 1   
    25     9    60 1   
    26    10    11 1   
    27    10    61 1   
    28    10    62 1   
    29    11    12 1   
    30    11    63 1   
    31    11    64 1   
    32    12    13 1   
    33    12    65 1   
    34    12    66 1   
    35    13    14 1   
    36    13    67 1   
    37    13    68 1   
    38    14    16 1   
    39    14    69 1   
    40    14    70 1   
    41    15    43 1   
    42    15    71 1   
    43    15    72 1   
    44    16    33 1   
    45    16    73 1   
    46    16    74 1   
    47    17    18 1   
    48    17    75 1   
    49    17    76 1   
    50    17   123 1   
    51    18    19 1   
    52    18    77 1   
    53    18    78 1   
    54    19    20 1   
    55    19    79 1   
    56    19    80 1   
    57    20    21 1   
    58    20    81 1   
    59    20    82 1   
    60    21    22 1   
    61    21    83 1   
    62    21    84 1   
    63    22    23 1   
    64    22    85 1   
    65    22    86 1   
    66    23    24 1   
    67    23    87 1   
    68    23    88 1   
    69    24    26 1   
    70    24    89 1   
    71    24    90 1   
    72    25    35 1   
    73    25    41 1   
    74    25    91 1   
    75    25    92 1   
    76    26    27 1   
    77    26    93 1   
    78    26    94 1   
    79    27    28 1   
    80    27    95 1   
    81    27    96 1   
    82    28    29 1   
    83    28    97 1   
    84    28    98 1   
    85    29    30 1   
    86    29    99 1   
    87    29   100 1   
    88    30    31 1   
    89    30   101 1   
    90    30   102 1   
    91    31    32 1   
    92    31   103 1   
    93    31   104 1   
    94    32   105 1   
    95    32   106 1   
    96    32   107 1   
    97    33    34 1   
    98    33   108 1   
    99    33   109 1   
   100    34   110 1   
   101    34   111 1   
   102    34   112 1   
   103    35   113 1   
   104    35   114 1   
   105    36    37 1   
   106    36    44 2   
   107    36   124 1   
   108    37    38 1   
   109    37   115 1   
   110    37   116 1   
   111    38    39 1   
   112    38   117 1   
   113    38   118 1   
   114    39    40 1   
   115    39   119 1   
   116    39   120 1   
   117    40   121 1   
   118    40   122 1   
   119    41    47 1   
   120    42    47 1   
   121    43    47 1   
   122    45   123 2   
   123    46   123 1   
@<TRIPOS>SUBSTRUCTURE
     1 9Y0         1 TEMP              0 ****  ****    0 ROOT
