@<TRIPOS>MOLECULE
9Y0
  124   123     1     0     0
SMALL
No Charge or Current Charge


@<TRIPOS>ATOM
      1 N            1.2750    -0.2450    -3.9490 n8         1 9Y0      -0.974200
      2 C            0.5600    -6.0870    -0.3580 c3         1 9Y0       0.175600
      3 O            1.2310    -2.8910    -4.9340 o          1 9Y0      -0.821000
      4 C1          -0.5860    -5.7830    -1.3610 c3         1 9Y0       0.152300
      5 C10          5.4390     0.5260     0.0850 c3         1 9Y0      -0.075400
      6 C11          5.2510     1.8850     0.8000 c3         1 9Y0      -0.072400
      7 C12          6.1840     2.9900     0.2650 c3         1 9Y0      -0.045200
      8 C13          5.9840     4.3120     0.9880 c2         1 9Y0      -0.211200
      9 C14          6.8160     4.8870     1.8760 c2         1 9Y0      -0.221200
     10 C15          8.1300     4.3270     2.3890 c3         1 9Y0      -0.043200
     11 C16          9.3170     4.7170     1.4830 c3         1 9Y0      -0.071400
     12 C17         10.6630     4.1220     1.9490 c3         1 9Y0      -0.076400
     13 C18         11.8280     4.4380     0.9840 c3         1 9Y0      -0.073400
     14 C19         13.1700     3.8140     1.4270 c3         1 9Y0      -0.075400
     15 C2          -0.1900    -5.8710    -2.8810 c3         1 9Y0       0.224600
     16 C20         14.3140     4.0670     0.4200 c3         1 9Y0      -0.074400
     17 C22         -2.8910    -2.7950    -1.2260 c3         1 9Y0      -0.141400
     18 C23         -4.3090    -2.7570    -0.6020 c3         1 9Y0      -0.067400
     19 C24         -4.8230    -1.3230    -0.3390 c3         1 9Y0      -0.075400
     20 C25         -6.3150    -1.2870     0.0630 c3         1 9Y0      -0.075400
     21 C26         -6.8570     0.1400     0.3080 c3         1 9Y0      -0.074400
     22 C27         -8.3840     0.1730     0.5480 c3         1 9Y0      -0.075400
     23 C28         -8.9310     1.5950     0.8140 c3         1 9Y0      -0.073400
     24 C29        -10.4690     1.6260     0.9690 c3         1 9Y0      -0.074400
     25 C3           0.6870    -1.8810    -2.0540 c3         1 9Y0       0.242600
     26 C30        -11.0320     3.0320     1.2720 c3         1 9Y0      -0.073400
     27 C31        -12.5730     3.0460     1.3850 c3         1 9Y0      -0.074400
     28 C32        -13.1460     4.4380     1.7290 c3         1 9Y0      -0.074400
     29 C33        -14.6870     4.4470     1.8270 c3         1 9Y0      -0.074400
     30 C34        -15.2630     5.8290     2.2020 c3         1 9Y0      -0.075400
     31 C35        -16.8040     5.8320     2.2900 c3         1 9Y0      -0.075400
     32 C36        -17.3880     7.2030     2.6790 c3         1 9Y0      -0.088100
     33 C37         15.6530     3.4290     0.8510 c3         1 9Y0      -0.075400
     34 C38         16.7860     3.6540    -0.1710 c3         1 9Y0      -0.088100
     35 C4           1.4260    -0.5820    -2.5130 c3         1 9Y0       0.136800
     36 C5           2.8040    -5.3660     0.1540 c          1 9Y0       0.620100
     37 C6           3.8940    -4.3830    -0.2710 c3         1 9Y0      -0.149400
     38 C7           3.7120    -3.0180     0.4330 c3         1 9Y0      -0.057400
     39 C8           4.6850    -1.9360    -0.0840 c3         1 9Y0      -0.081400
     40 C9           4.4880    -0.5700     0.6130 c3         1 9Y0      -0.072400
     41 O1           1.4660    -3.0420    -2.3780 os         1 9Y0      -0.581400
     42 O2           2.4390    -4.8020    -3.9760 o          1 9Y0      -0.821000
     43 O3          -0.0800    -4.5830    -3.5320 os         1 9Y0      -0.596400
     44 O4           2.8830    -6.0860     1.1410 o          1 9Y0      -0.512000
     45 O6          -3.0750    -4.9710    -2.2940 o          1 9Y0      -0.515000
     46 O7          -1.2070    -4.5110    -1.0300 os         1 9Y0      -0.420100
     47 P            1.3260    -3.8270    -3.7750 p5         1 9Y0       1.392800
     48 H1           1.3990    -1.1270    -4.4780 hn         1 9Y0       0.374000
     49 H2           0.2950    -0.0090    -4.1340 hn         1 9Y0       0.374000
     50 H4           0.1980    -5.9150     0.6650 h1         1 9Y0       0.055200
     51 H5           0.8340    -7.1470    -0.4450 h1         1 9Y0       0.055200
     52 H6          -1.3180    -6.5840    -1.1890 h1         1 9Y0       0.049700
     53 H7           5.2720     0.6570    -0.9920 hc         1 9Y0       0.035700
     54 H8           6.4770     0.1920     0.2100 hc         1 9Y0       0.035700
     55 H9           4.2100     2.2110     0.6900 hc         1 9Y0       0.037700
     56 H10          5.4330     1.7560     1.8740 hc         1 9Y0       0.037700
     57 H11          7.2220     2.6480     0.3480 hc         1 9Y0       0.042700
     58 H12          5.9970     3.1290    -0.8070 hc         1 9Y0       0.042700
     59 H13          5.0610     4.8260     0.7120 ha         1 9Y0       0.161000
     60 H14          6.5530     5.8540     2.3110 ha         1 9Y0       0.159000
     61 H15          8.3150     4.6890     3.4080 hc         1 9Y0       0.047700
     62 H16          8.0750     3.2340     2.4620 hc         1 9Y0       0.047700
     63 H17          9.1090     4.3790     0.4600 hc         1 9Y0       0.035700
     64 H18          9.3960     5.8110     1.4460 hc         1 9Y0       0.035700
     65 H19         10.9020     4.5060     2.9490 hc         1 9Y0       0.039700
     66 H20         10.5610     3.0330     2.0400 hc         1 9Y0       0.039700
     67 H21         11.5730     4.0640    -0.0160 hc         1 9Y0       0.034700
     68 H22         11.9450     5.5260     0.8990 hc         1 9Y0       0.034700
     69 H23         13.4510     4.2220     2.4060 hc         1 9Y0       0.038700
     70 H24         13.0370     2.7330     1.5570 hc         1 9Y0       0.038700
     71 H25          0.7410    -6.4460    -2.9750 h1         1 9Y0       0.032700
     72 H26         -0.9610    -6.4610    -3.3930 h1         1 9Y0       0.032700
     73 H27         14.0260     3.6680    -0.5610 hc         1 9Y0       0.035200
     74 H28         14.4530     5.1480     0.2960 hc         1 9Y0       0.035200
     75 H29         -2.1670    -2.3260    -0.5500 hc         1 9Y0       0.071200
     76 H30         -2.9010    -2.2250    -2.1620 hc         1 9Y0       0.071200
     77 H31         -5.0060    -3.2650    -1.2800 hc         1 9Y0       0.050700
     78 H32         -4.3100    -3.3240     0.3380 hc         1 9Y0       0.050700
     79 H33         -4.2170    -0.8590     0.4510 hc         1 9Y0       0.036700
     80 H34         -4.6840    -0.7170    -1.2430 hc         1 9Y0       0.036700
     81 H35         -6.9050    -1.7610    -0.7330 hc         1 9Y0       0.037700
     82 H36         -6.4620    -1.8900     0.9680 hc         1 9Y0       0.037700
     83 H37         -6.3420     0.5770     1.1720 hc         1 9Y0       0.036700
     84 H38         -6.6200     0.7700    -0.5580 hc         1 9Y0       0.036700
     85 H39         -8.8920    -0.2480    -0.3280 hc         1 9Y0       0.036700
     86 H40         -8.6320    -0.4730     1.4000 hc         1 9Y0       0.036700
     87 H41         -8.4660     1.9960     1.7220 hc         1 9Y0       0.036700
     88 H42         -8.6410     2.2540    -0.0140 hc         1 9Y0       0.036700
     89 H43        -10.9280     1.2480     0.0470 hc         1 9Y0       0.036700
     90 H44        -10.7630     0.9420     1.7750 hc         1 9Y0       0.036700
     91 H45          0.5500    -1.8350    -0.9660 h1         1 9Y0       0.018200
     92 H46         -0.3110    -1.9290    -2.5090 h1         1 9Y0       0.018200
     93 H47        -10.5980     3.4010     2.2090 hc         1 9Y0       0.037200
     94 H48        -10.7240     3.7270     0.4800 hc         1 9Y0       0.037200
     95 H49        -13.0060     2.7020     0.4370 hc         1 9Y0       0.036700
     96 H50        -12.8830     2.3290     2.1560 hc         1 9Y0       0.036700
     97 H51        -12.7230     4.7750     2.6830 hc         1 9Y0       0.037200
     98 H52        -12.8300     5.1580     0.9650 hc         1 9Y0       0.037200
     99 H53        -15.1100     4.1290     0.8650 hc         1 9Y0       0.036700
    100 H54        -15.0060     3.7100     2.5750 hc         1 9Y0       0.036700
    101 H55        -14.8460     6.1440     3.1670 hc         1 9Y0       0.036700
    102 H56        -14.9430     6.5690     1.4580 hc         1 9Y0       0.036700
    103 H57        -17.2230     5.5280     1.3230 hc         1 9Y0       0.036200
    104 H58        -17.1270     5.0860     3.0280 hc         1 9Y0       0.036200
    105 H59        -17.1100     7.9670     1.9430 hc         1 9Y0       0.030367
    106 H60        -18.4830     7.1530     2.7240 hc         1 9Y0       0.030367
    107 H61        -17.0190     7.5180     3.6630 hc         1 9Y0       0.030367
    108 H62         15.9580     3.8420     1.8200 hc         1 9Y0       0.037700
    109 H63         15.5140     2.3500     0.9920 hc         1 9Y0       0.037700
    110 H64         16.5230     3.2170    -1.1420 hc         1 9Y0       0.029700
    111 H65         16.9780     4.7250    -0.3120 hc         1 9Y0       0.029700
    112 H66         17.7130     3.1820     0.1760 hc         1 9Y0       0.029700
    113 H67          2.4970    -0.6900    -2.2950 h1         1 9Y0       0.017200
    114 H68          1.0520     0.2700    -1.9290 h1         1 9Y0       0.017200
    115 H69          4.8780    -4.7960    -0.0240 hc         1 9Y0       0.089200
    116 H70          3.8050    -4.2110    -1.3500 hc         1 9Y0       0.089200
    117 H71          2.6820    -2.6710     0.2830 hc         1 9Y0       0.044200
    118 H72          3.8500    -3.1500     1.5140 hc         1 9Y0       0.044200
    119 H73          5.7160    -2.2780     0.0680 hc         1 9Y0       0.044200
    120 H74          4.5430    -1.8140    -1.1650 hc         1 9Y0       0.044200
    121 H75          4.6440    -0.6920     1.6920 hc         1 9Y0       0.035200
    122 H76          3.4510    -0.2410     0.4730 hc         1 9Y0       0.035200
    123 C21         -2.4380    -4.2210    -1.5650 c          1 9Y0       0.599100
    124 O5           1.6980    -5.2600    -0.6420 os         1 9Y0      -0.416100
@<TRIPOS>BOND
     1     1    35 1   
     2     1    48 1   
     3     1    49 1   
     4     2     4 1   
     5     2    50 1   
     6     2    51 1   
     7     2   124 1   
     8     3    47 1   
     9     4    15 1   
    10     4    46 1   
    11     4    52 1   
    12     5     6 1   
    13     5    40 1   
    14     5    53 1   
    15     5    54 1   
    16     6     7 1   
    17     6    55 1   
    18     6    56 1   
    19     7     8 1   
    20     7    57 1   
    21     7    58 1   
    22     8     9 2   
    23     8    59 1   
    24     9    10 1   
    25     9    60 1   
    26    10    11 1   
    27    10    61 1   
    28    10    62 1   
    29    11    12 1   
    30    11    63 1   
    31    11    64 1   
    32    12    13 1   
    33    12    65 1   
    34    12    66 1   
    35    13    14 1   
    36    13    67 1   
    37    13    68 1   
    38    14    16 1   
    39    14    69 1   
    40    14    70 1   
    41    15    43 1   
    42    15    71 1   
    43    15    72 1   
    44    16    33 1   
    45    16    73 1   
    46    16    74 1   
    47    17    18 1   
    48    17    75 1   
    49    17    76 1   
    50    17   123 1   
    51    18    19 1   
    52    18    77 1   
    53    18    78 1   
    54    19    20 1   
    55    19    79 1   
    56    19    80 1   
    57    20    21 1   
    58    20    81 1   
    59    20    82 1   
    60    21    22 1   
    61    21    83 1   
    62    21    84 1   
    63    22    23 1   
    64    22    85 1   
    65    22    86 1   
    66    23    24 1   
    67    23    87 1   
    68    23    88 1   
    69    24    26 1   
    70    24    89 1   
    71    24    90 1   
    72    25    35 1   
    73    25    41 1   
    74    25    91 1   
    75    25    92 1   
    76    26    27 1   
    77    26    93 1   
    78    26    94 1   
    79    27    28 1   
    80    27    95 1   
    81    27    96 1   
    82    28    29 1   
    83    28    97 1   
    84    28    98 1   
    85    29    30 1   
    86    29    99 1   
    87    29   100 1   
    88    30    31 1   
    89    30   101 1   
    90    30   102 1   
    91    31    32 1   
    92    31   103 1   
    93    31   104 1   
    94    32   105 1   
    95    32   106 1   
    96    32   107 1   
    97    33    34 1   
    98    33   108 1   
    99    33   109 1   
   100    34   110 1   
   101    34   111 1   
   102    34   112 1   
   103    35   113 1   
   104    35   114 1   
   105    36    37 1   
   106    36    44 2   
   107    36   124 1   
   108    37    38 1   
   109    37   115 1   
   110    37   116 1   
   111    38    39 1   
   112    38   117 1   
   113    38   118 1   
   114    39    40 1   
   115    39   119 1   
   116    39   120 1   
   117    40   121 1   
   118    40   122 1   
   119    41    47 1   
   120    42    47 1   
   121    43    47 1   
   122    45   123 2   
   123    46   123 1   
@<TRIPOS>SUBSTRUCTURE
     1 9Y0         1 TEMP              0 ****  ****    0 ROOT
