@<TRIPOS>MOLECULE
9Y1
   30    32     1     0     0
SMALL
No Charge or Current Charge


@<TRIPOS>ATOM
      1 C11         -5.7430     1.2880     0.1480 ca         1 9Y1       0.162000
      2 C13         -4.6680     2.1580    -0.0780 ca         1 9Y1      -0.159000
      3 C14         -3.3560     1.6550    -0.1330 ca         1 9Y1      -0.066500
      4 N15         -0.6760     0.5430     0.0110 nc         1 9Y1      -0.435800
      5 C17          1.7270     0.0890     0.0120 cc         1 9Y1       0.445900
      6 C19          3.3390     1.6300    -0.0680 cd         1 9Y1       0.248500
      7 C20          4.0720     2.9300    -0.3820 c          1 9Y1       0.631500
      8 C23          3.9980     0.5980     0.5860 cc         1 9Y1      -0.218000
      9 F01          0.1410    -3.9540    -0.8720 f          1 9Y1      -0.105000
     10 F03          1.4210    -3.4070     0.7890 f          1 9Y1      -0.105000
     11 F04          1.8800    -2.7150    -1.2360 f          1 9Y1      -0.105000
     12 C05          0.0230    -1.7120    -0.1240 cc         1 9Y1      -0.261300
     13 C06         -1.3460    -1.6250    -0.0880 cd         1 9Y1      -0.159000
     14 C07         -1.7250    -0.2590    -0.0060 cd         1 9Y1       0.274500
     15 C08         -3.1070     0.2710     0.0300 ca         1 9Y1      -0.114500
     16 C09         -4.2030    -0.5910     0.2700 ca         1 9Y1      -0.066500
     17 C10         -5.5140    -0.0830     0.3240 ca         1 9Y1      -0.159000
     18 F12         -7.0020     1.7720     0.2010 f          1 9Y1      -0.188000
     19 N16          0.3790    -0.3540    -0.0320 na         1 9Y1       0.195300
     20 N18          2.0000     1.3340    -0.3660 nd         1 9Y1      -0.550000
     21 O21          3.4690     3.8300    -0.9570 o          1 9Y1      -0.690500
     22 O22          5.2480     3.0490    -0.0550 o          1 9Y1      -0.690500
     23 S24          2.9660    -0.7740     0.8830 ss         1 9Y1      -0.108400
     24 H1          -4.8510     3.2210    -0.2100 ha         1 9Y1       0.126500
     25 H2          -2.5360     2.3480    -0.3080 ha         1 9Y1       0.131000
     26 H3           5.0250     0.5760     0.9260 h4         1 9Y1       0.172000
     27 H4          -2.0270    -2.4660    -0.1580 ha         1 9Y1       0.148000
     28 H5          -4.0490    -1.6560     0.4230 ha         1 9Y1       0.131000
     29 H6          -6.3510    -0.7520     0.5070 ha         1 9Y1       0.126500
     30 C02          0.8770    -2.9440    -0.3580 c3         1 9Y1       0.392300
@<TRIPOS>BOND
     1     1     2 ar  
     2     1    17 ar  
     3     1    18 1   
     4     2     3 ar  
     5     2    24 1   
     6     3    15 ar  
     7     3    25 1   
     8     4    14 2   
     9     4    19 1   
    10     5    19 1   
    11     5    20 2   
    12     5    23 1   
    13     6     7 1   
    14     6     8 2   
    15     6    20 1   
    16     7    21 1   
    17     7    22 1   
    18     8    23 1   
    19     8    26 1   
    20     9    30 1   
    21    10    30 1   
    22    11    30 1   
    23    12    13 2   
    24    12    19 1   
    25    12    30 1   
    26    13    14 1   
    27    13    27 1   
    28    14    15 1   
    29    15    16 ar  
    30    16    17 ar  
    31    16    28 1   
    32    17    29 1   
@<TRIPOS>SUBSTRUCTURE
     1 9Y1         1 TEMP              0 ****  ****    0 ROOT
