@<TRIPOS>MOLECULE
9Y1
   30    32     1     0     0
SMALL
abcg2


@<TRIPOS>ATOM
      1 C11         -5.6630     1.2900     0.1740 ca         1 9Y1       0.162000
      2 C13         -4.5810     2.1470     0.2580 ca         1 9Y1      -0.159000
      3 C14         -3.3050     1.6130     0.2110 ca         1 9Y1      -0.066500
      4 N15         -0.6900     0.4310     0.2160 nc         1 9Y1      -0.435800
      5 C17          1.6490     0.1630     0.2320 cc         1 9Y1       0.445900
      6 C19          3.3280     1.5140    -0.1250 cd         1 9Y1       0.248500
      7 C20          4.0530     2.6490    -0.8230 c          1 9Y1       0.631500
      8 C23          3.8640     0.7750     0.8880 cc         1 9Y1      -0.218000
      9 F01          0.2960    -3.8310    -0.8800 f          1 9Y1      -0.105000
     10 F03          1.5130    -3.1730     0.7680 f          1 9Y1      -0.105000
     11 F04          1.9140    -2.4450    -1.2150 f          1 9Y1      -0.105000
     12 C05         -0.0160    -1.6560    -0.1580 cc         1 9Y1      -0.261300
     13 C06         -1.3790    -1.6660    -0.2110 cd         1 9Y1      -0.159000
     14 C07         -1.7550    -0.3240     0.0300 cd         1 9Y1       0.274500
     15 C08         -3.1060     0.2380     0.0810 ca         1 9Y1      -0.114500
     16 C09         -4.2210    -0.5940    -0.0010 ca         1 9Y1      -0.066500
     17 C10         -5.5050    -0.0760     0.0440 ca         1 9Y1      -0.159000
     18 F12         -6.9020     1.8000     0.2170 f          1 9Y1      -0.188000
     19 N16          0.3620    -0.3760     0.1030 na         1 9Y1       0.195300
     20 N18          2.0620     1.1460    -0.4840 nd         1 9Y1      -0.550000
     21 O21          3.4270     3.2360    -1.7180 o          1 9Y1      -0.690500
     22 O22          5.2080     2.8700    -0.4160 o          1 9Y1      -0.690500
     23 S24          2.7510    -0.4000     1.4310 ss         1 9Y1      -0.108400
     24 H1          -4.7320     3.2140     0.3560 ha         1 9Y1       0.126500
     25 H2          -2.4550     2.2800     0.2730 ha         1 9Y1       0.131000
     26 H3           4.8450     0.8580     1.3250 h4         1 9Y1       0.172000
     27 H4          -2.0160    -2.5120    -0.4080 ha         1 9Y1       0.148000
     28 H5          -4.1010    -1.6650    -0.0970 ha         1 9Y1       0.131000
     29 H6          -6.3670    -0.7270    -0.0200 ha         1 9Y1       0.126500
     30 C02          0.9330    -2.7800    -0.3720 c3         1 9Y1       0.392300
@<TRIPOS>BOND
     1     1     2 ar  
     2     1    17 ar  
     3     1    18 1   
     4     2     3 ar  
     5     2    24 1   
     6     3    15 ar  
     7     3    25 1   
     8     4    14 2   
     9     4    19 1   
    10     5    19 1   
    11     5    20 2   
    12     5    23 1   
    13     6     7 1   
    14     6     8 2   
    15     6    20 1   
    16     7    21 1   
    17     7    22 1   
    18     8    23 1   
    19     8    26 1   
    20     9    30 1   
    21    10    30 1   
    22    11    30 1   
    23    12    13 2   
    24    12    19 1   
    25    12    30 1   
    26    13    14 1   
    27    13    27 1   
    28    14    15 1   
    29    15    16 ar  
    30    16    17 ar  
    31    16    28 1   
    32    17    29 1   
@<TRIPOS>SUBSTRUCTURE
     1 9Y1         1 TEMP              0 ****  ****    0 ROOT
