@<TRIPOS>MOLECULE
9Y2
   41    42     1     0     0
SMALL
bcc


@<TRIPOS>ATOM
      1 C10          1.0290     0.4430     0.7730 ca         1 9Y2       0.152400
      2 C13         -1.2350     0.2530     0.0560 ca         1 9Y2      -0.104600
      3 C15          0.5470    -0.3720    -1.3940 ca         1 9Y2       0.152400
      4 C17         -2.6780     0.4380     0.3700 c          1 9Y2       0.684700
      5 C20         -4.9020    -0.3770    -0.1150 cc         1 9Y2       0.525300
      6 C22         -6.9700    -1.0070    -0.4270 cd         1 9Y2       0.368200
      7 C01          5.9230    -0.6480     2.0120 c3         1 9Y2      -0.088767
      8 C02          6.0000    -0.2700     0.5330 c3         1 9Y2      -0.035000
      9 C03          5.6340     1.2050     0.3590 c3         1 9Y2      -0.088767
     10 C04          7.4270    -0.4970     0.0320 c3         1 9Y2      -0.088767
     11 C05          5.0750    -1.1660    -0.3240 c3         1 9Y2      -0.150400
     12 C06          3.6200    -1.1060     0.0620 c          1 9Y2       0.680100
     13 C09          1.5020    -0.0600    -0.4350 ca         1 9Y2      -0.007400
     14 C12         -0.3130     0.6060     1.0350 ca         1 9Y2      -0.141000
     15 C14         -0.8060    -0.2220    -1.1790 ca         1 9Y2      -0.141000
     16 C23         -7.2110     0.0040     0.4400 cc         1 9Y2      -0.249400
     17 F11          1.9180     0.7950     1.6990 f          1 9Y2      -0.123400
     18 F16          0.9720    -0.8300    -2.5710 f          1 9Y2      -0.123400
     19 N08          2.8640    -0.2420    -0.6780 ns         1 9Y2      -0.491100
     20 N19         -3.5350    -0.3970    -0.2710 ns         1 9Y2      -0.529400
     21 N21         -5.6580    -1.2210    -0.7410 nd         1 9Y2      -0.704000
     22 O07          3.1350    -1.7600     0.9650 o          1 9Y2      -0.568100
     23 O18         -3.0720     1.2700     1.1650 o          1 9Y2      -0.564100
     24 S24         -5.7270     0.7430     0.9100 ss         1 9Y2      -0.081300
     25 H1          -7.7290    -1.6350    -0.8710 h4         1 9Y2       0.041100
     26 H2           4.9420    -0.4410     2.4400 hc         1 9Y2       0.038589
     27 H3           6.1380    -1.7080     2.1640 hc         1 9Y2       0.038589
     28 H4           6.6570    -0.0750     2.5830 hc         1 9Y2       0.038589
     29 H5           6.3480     1.8400     0.8870 hc         1 9Y2       0.038589
     30 H6           5.6490     1.4980    -0.6930 hc         1 9Y2       0.038589
     31 H7           4.6440     1.4310     0.7560 hc         1 9Y2       0.038589
     32 H8           7.7270    -1.5410     0.1460 hc         1 9Y2       0.038589
     33 H9           7.5270    -0.2330    -1.0230 hc         1 9Y2       0.038589
     34 H10          8.1360     0.1130     0.5950 hc         1 9Y2       0.038589
     35 H11          5.1990    -0.8880    -1.3750 hc         1 9Y2       0.064200
     36 H12          5.3970    -2.2050    -0.2250 hc         1 9Y2       0.064200
     37 H13         -0.6320     0.9990     1.9910 ha         1 9Y2       0.169500
     38 H14         -1.4940    -0.4630    -1.9780 ha         1 9Y2       0.169500
     39 H15         -8.1570     0.3480     0.8260 h4         1 9Y2       0.179000
     40 H16          3.2680     0.1870    -1.4960 hn         1 9Y2       0.334500
     41 H17         -3.1850    -1.1450    -0.8540 hn         1 9Y2       0.346500
@<TRIPOS>BOND
     1     1    13 ar  
     2     1    14 ar  
     3     1    17 1   
     4     2     4 1   
     5     2    14 ar  
     6     2    15 ar  
     7     3    13 ar  
     8     3    15 ar  
     9     3    18 1   
    10     4    20 1   
    11     4    23 2   
    12     5    20 1   
    13     5    21 2   
    14     5    24 1   
    15     6    16 2   
    16     6    21 1   
    17     6    25 1   
    18     7     8 1   
    19     7    26 1   
    20     7    27 1   
    21     7    28 1   
    22     8     9 1   
    23     8    10 1   
    24     8    11 1   
    25     9    29 1   
    26     9    30 1   
    27     9    31 1   
    28    10    32 1   
    29    10    33 1   
    30    10    34 1   
    31    11    12 1   
    32    11    35 1   
    33    11    36 1   
    34    12    19 1   
    35    12    22 2   
    36    13    19 1   
    37    14    37 1   
    38    15    38 1   
    39    16    24 1   
    40    16    39 1   
    41    19    40 1   
    42    20    41 1   
@<TRIPOS>SUBSTRUCTURE
     1 9Y2         1 TEMP              0 ****  ****    0 ROOT
