@<TRIPOS>MOLECULE
9Y2
   41    42     1     0     0
SMALL
No Charge or Current Charge


@<TRIPOS>ATOM
      1 C10          0.9720     0.0070     1.2020 ca         1 9Y2       0.187500
      2 C13         -1.3620    -0.0970     0.4430 ca         1 9Y2      -0.104600
      3 C15          0.4700    -0.8420    -1.0080 ca         1 9Y2       0.187500
      4 C17         -2.8340     0.1530     0.7320 c          1 9Y2       0.617700
      5 C20         -5.0830    -0.0650    -0.2760 cc         1 9Y2       0.525300
      6 C22         -7.0760    -0.2860    -1.2310 cd         1 9Y2       0.302900
      7 C01          6.4700    -0.3040     1.8910 c3         1 9Y2      -0.088767
      8 C02          6.1520    -0.1320     0.3810 c3         1 9Y2      -0.035000
      9 C03          5.5030     1.2590     0.1490 c3         1 9Y2      -0.088767
     10 C04          7.4820    -0.2020    -0.4150 c3         1 9Y2      -0.088767
     11 C05          5.2090    -1.2710    -0.1290 c3         1 9Y2      -0.150400
     12 C06          3.8110    -1.2800     0.5170 c          1 9Y2       0.613100
     13 C09          1.4220    -0.5470    -0.0160 ca         1 9Y2      -0.100000
     14 C12         -0.3970     0.2230     1.4260 ca         1 9Y2      -0.123000
     15 C14         -0.9010    -0.6300    -0.7880 ca         1 9Y2      -0.123000
     16 C23         -7.4700     0.2540    -0.0300 cc         1 9Y2      -0.311000
     17 F11          1.8490     0.3950     2.1550 f          1 9Y2      -0.158500
     18 F16          0.8710    -1.3510    -2.1950 f          1 9Y2      -0.158500
     19 N08          2.8010    -0.7770    -0.2910 ns         1 9Y2      -0.165000
     20 N19         -3.7190    -0.1830    -0.2620 ns         1 9Y2      -0.462400
     21 N21         -5.7060    -0.4670    -1.3690 nd         1 9Y2      -0.704000
     22 O07          3.6080    -1.7570     1.6270 o          1 9Y2      -0.568100
     23 O18         -3.2010     0.6290     1.7960 o          1 9Y2      -0.564100
     24 S24         -6.1060     0.5630     1.0030 ss         1 9Y2       0.063600
     25 H1          -7.7370    -0.5660    -2.0420 h4         1 9Y2       0.041100
     26 H2           5.5730    -0.1750     2.5080 hc         1 9Y2       0.038589
     27 H3           6.8840    -1.2990     2.0950 hc         1 9Y2       0.038589
     28 H4           7.2040     0.4400     2.2220 hc         1 9Y2       0.038589
     29 H5           6.1900     2.0630     0.4400 hc         1 9Y2       0.038589
     30 H6           5.2470     1.4020    -0.9080 hc         1 9Y2       0.038589
     31 H7           4.5870     1.3770     0.7400 hc         1 9Y2       0.038589
     32 H8           7.9750    -1.1720    -0.2720 hc         1 9Y2       0.038589
     33 H9           7.3070    -0.0680    -1.4890 hc         1 9Y2       0.038589
     34 H10          8.1780     0.5810    -0.0880 hc         1 9Y2       0.038589
     35 H11          5.0940    -1.1450    -1.2130 hc         1 9Y2       0.064200
     36 H12          5.6850    -2.2370     0.0730 hc         1 9Y2       0.064200
     37 H13         -0.7050     0.6550     2.3760 ha         1 9Y2       0.151500
     38 H14         -1.5850    -0.8880    -1.5920 ha         1 9Y2       0.151500
     39 H15         -8.4700     0.4860     0.3090 h4         1 9Y2       0.161000
     40 H16          3.0940    -0.5130    -1.2230 hn         1 9Y2       0.168000
     41 H17         -3.3120    -0.5690    -1.0970 hn         1 9Y2       0.346500
@<TRIPOS>BOND
     1     1    13 ar  
     2     1    14 ar  
     3     1    17 1   
     4     2     4 1   
     5     2    14 ar  
     6     2    15 ar  
     7     3    13 ar  
     8     3    15 ar  
     9     3    18 1   
    10     4    20 1   
    11     4    23 2   
    12     5    20 1   
    13     5    21 2   
    14     5    24 1   
    15     6    16 2   
    16     6    21 1   
    17     6    25 1   
    18     7     8 1   
    19     7    26 1   
    20     7    27 1   
    21     7    28 1   
    22     8     9 1   
    23     8    10 1   
    24     8    11 1   
    25     9    29 1   
    26     9    30 1   
    27     9    31 1   
    28    10    32 1   
    29    10    33 1   
    30    10    34 1   
    31    11    12 1   
    32    11    35 1   
    33    11    36 1   
    34    12    19 1   
    35    12    22 2   
    36    13    19 1   
    37    14    37 1   
    38    15    38 1   
    39    16    24 1   
    40    16    39 1   
    41    19    40 1   
    42    20    41 1   
@<TRIPOS>SUBSTRUCTURE
     1 9Y2         1 TEMP              0 ****  ****    0 ROOT
