@<TRIPOS>MOLECULE
9Y3
   18    18     1     0     0
SMALL
abcg2


@<TRIPOS>ATOM
      1 C1          -1.6710     1.4920    -0.4190 ca         1 9Y3      -0.111000
      2 C2          -2.7800     0.8650     0.1320 ca         1 9Y3      -0.097000
      3 C3          -2.7080    -0.4760     0.4920 ca         1 9Y3      -0.111000
      4 C4          -1.5290    -1.1800     0.3090 ca         1 9Y3      -0.092500
      5 C5          -0.3940    -0.5490    -0.2080 ca         1 9Y3      -0.081800
      6 C6          -0.4860     0.7910    -0.5920 ca         1 9Y3      -0.092500
      7 C7           0.8340    -1.3310    -0.3640 ce         1 9Y3      -0.089200
      8 C8           2.1020    -0.9290    -0.1750 cf         1 9Y3      -0.318200
      9 C9           2.4970     0.3570     0.3920 c          1 9Y3       0.564100
     10 O10          3.6510     0.7300     0.4540 o          1 9Y3      -0.520100
     11 H1          -1.7300     2.5280    -0.7270 ha         1 9Y3       0.117000
     12 H2          -3.7030     1.4130     0.2660 ha         1 9Y3       0.116000
     13 H3          -3.5740    -0.9740     0.9070 ha         1 9Y3       0.117000
     14 H4          -1.4800    -2.2280     0.5820 ha         1 9Y3       0.116000
     15 H5           0.3550     1.2800    -1.0660 ha         1 9Y3       0.116000
     16 H6           0.6860    -2.3640    -0.6650 ha         1 9Y3       0.178000
     17 H7           2.9060    -1.6250    -0.3900 ha         1 9Y3       0.196000
     18 H8           1.6870     0.9720     0.8150 h4         1 9Y3      -0.005800
@<TRIPOS>BOND
     1     1     2 ar  
     2     1     6 ar  
     3     1    11 1   
     4     2     3 ar  
     5     2    12 1   
     6     3     4 ar  
     7     3    13 1   
     8     4     5 ar  
     9     4    14 1   
    10     5     6 ar  
    11     5     7 1   
    12     6    15 1   
    13     7     8 2   
    14     7    16 1   
    15     8     9 1   
    16     8    17 1   
    17     9    10 2   
    18     9    18 1   
@<TRIPOS>SUBSTRUCTURE
     1 9Y3         1 TEMP              0 ****  ****    0 ROOT
