@<TRIPOS>MOLECULE
9Y3
   18    18     1     0     0
SMALL
No Charge or Current Charge


@<TRIPOS>ATOM
      1 C1          -1.7220     1.5000    -0.4600 ca         1 9Y3      -0.111000
      2 C2          -2.8260     0.8650     0.1340 ca         1 9Y3      -0.097000
      3 C3          -2.7270    -0.4780     0.5360 ca         1 9Y3      -0.111000
      4 C4          -1.5240    -1.1820     0.3500 ca         1 9Y3      -0.092500
      5 C5          -0.4100    -0.5470    -0.2300 ca         1 9Y3      -0.081800
      6 C6          -0.5200     0.7960    -0.6460 ca         1 9Y3      -0.092500
      7 C7           0.8490    -1.3130    -0.4320 ce         1 9Y3      -0.089200
      8 C8           2.1370    -0.9470    -0.1610 cf         1 9Y3      -0.318200
      9 C9           2.5590     0.3370     0.4550 c          1 9Y3       0.564100
     10 O10          3.7370     0.6090     0.6580 o          1 9Y3      -0.520100
     11 H1          -1.8000     2.5360    -0.7820 ha         1 9Y3       0.117000
     12 H2          -3.7570     1.4090     0.2760 ha         1 9Y3       0.116000
     13 H3          -3.5820    -0.9740     0.9910 ha         1 9Y3       0.117000
     14 H4          -1.4560    -2.2210     0.6640 ha         1 9Y3       0.116000
     15 H5           0.3210     1.2920    -1.1260 ha         1 9Y3       0.116000
     16 H6           0.6870    -2.3130    -0.8390 ha         1 9Y3       0.178000
     17 H7           2.9420    -1.6460    -0.3830 ha         1 9Y3       0.196000
     18 H8           1.7540     1.0490     0.7380 h4         1 9Y3      -0.005800
@<TRIPOS>BOND
     1     1     2 ar  
     2     1     6 ar  
     3     1    11 1   
     4     2     3 ar  
     5     2    12 1   
     6     3     4 ar  
     7     3    13 1   
     8     4     5 ar  
     9     4    14 1   
    10     5     6 ar  
    11     5     7 1   
    12     6    15 1   
    13     7     8 2   
    14     7    16 1   
    15     8     9 1   
    16     8    17 1   
    17     9    10 2   
    18     9    18 1   
@<TRIPOS>SUBSTRUCTURE
     1 9Y3         1 TEMP              0 ****  ****    0 ROOT
