@<TRIPOS>MOLECULE
9Y4
   37    38     1     0     0
SMALL
abcg2


@<TRIPOS>ATOM
      1 C02         67.5350   110.4180    14.1850 c          1 9Y4       0.586100
      2 C04         65.3420   110.2200    15.2910 c3         1 9Y4       0.147300
      3 C05         65.0790   111.0720    16.5070 ca         1 9Y4      -0.117300
      4 C06         64.3420   110.5810    17.5760 ca         1 9Y4      -0.093500
      5 C07         64.0960   111.3670    18.6950 ca         1 9Y4      -0.114500
      6 C08         64.5850   112.6670    18.7790 ca         1 9Y4      -0.070300
      7 C09         64.3470   113.5090    19.9990 c3         1 9Y4      -0.047800
      8 C10         65.3250   113.1570    17.7020 ca         1 9Y4      -0.114500
      9 C11         65.5700   112.3740    16.5850 ca         1 9Y4      -0.093500
     10 C12         68.9780   109.9210    14.2070 c3         1 9Y4       0.127800
     11 C14         69.0070   107.4810    14.5690 ca         1 9Y4       0.304000
     12 C15         68.2530   107.2080    13.4220 ca         1 9Y4      -0.180000
     13 C16         68.0400   105.8950    13.0210 ca         1 9Y4      -0.069500
     14 C17         68.5620   104.8300    13.7400 ca         1 9Y4      -0.155000
     15 C18         69.3150   105.0990    14.8790 ca         1 9Y4      -0.069500
     16 C19         69.5370   106.4010    15.2890 ca         1 9Y4      -0.180000
     17 N03         66.7400   109.8950    15.1260 ns         1 9Y4      -0.491900
     18 N13         69.2150   108.7660    15.0240 nu         1 9Y4      -0.979200
     19 O01         67.1830   111.2490    13.3600 o          1 9Y4      -0.615100
     20 H1          65.0060   110.7300    14.3890 h1         1 9Y4       0.063200
     21 H2          64.7730   109.2910    15.3630 h1         1 9Y4       0.063200
     22 H3          63.9470   109.5720    17.5370 ha         1 9Y4       0.116500
     23 H4          63.5130   110.9610    19.5140 ha         1 9Y4       0.111500
     24 H5          65.1850   113.4320    20.6960 hc         1 9Y4       0.042367
     25 H6          64.2370   114.5620    19.7440 hc         1 9Y4       0.042367
     26 H7          63.4520   113.1940    20.5330 hc         1 9Y4       0.042367
     27 H8          65.7100   114.1700    17.7360 ha         1 9Y4       0.111500
     28 H9          66.1390   112.7860    15.7600 ha         1 9Y4       0.116500
     29 H10         69.2880   109.7740    13.1660 h1         1 9Y4       0.069700
     30 H11         69.5870   110.7410    14.5920 h1         1 9Y4       0.069700
     31 H12         67.8250   108.0080    12.8330 ha         1 9Y4       0.114000
     32 H13         67.4520   105.7100    12.1300 ha         1 9Y4       0.110500
     33 H14         68.3900   103.8110    13.4210 ha         1 9Y4       0.115000
     34 H15         69.7370   104.2850    15.4540 ha         1 9Y4       0.110500
     35 H16         70.1270   106.5940    16.1780 ha         1 9Y4       0.114000
     36 H17         67.1590   109.2410    15.7710 hn         1 9Y4       0.332500
     37 H18         69.9260   108.8680    15.7280 hn         1 9Y4       0.479000
@<TRIPOS>BOND
     1     1    10 1   
     2     1    17 1   
     3     1    19 2   
     4     2     3 1   
     5     2    17 1   
     6     2    20 1   
     7     2    21 1   
     8     3     4 ar  
     9     3     9 ar  
    10     4     5 ar  
    11     4    22 1   
    12     5     6 ar  
    13     5    23 1   
    14     6     7 1   
    15     6     8 ar  
    16     7    24 1   
    17     7    25 1   
    18     7    26 1   
    19     8     9 ar  
    20     8    27 1   
    21     9    28 1   
    22    10    18 1   
    23    10    29 1   
    24    10    30 1   
    25    11    12 ar  
    26    11    16 ar  
    27    11    18 1   
    28    12    13 ar  
    29    12    31 1   
    30    13    14 ar  
    31    13    32 1   
    32    14    15 ar  
    33    14    33 1   
    34    15    16 ar  
    35    15    34 1   
    36    16    35 1   
    37    17    36 1   
    38    18    37 1   
@<TRIPOS>SUBSTRUCTURE
     1 9Y4         1 TEMP              0 ****  ****    0 ROOT
