@<TRIPOS>MOLECULE
9Y4
   37    38     1     0     0
SMALL
No Charge or Current Charge


@<TRIPOS>ATOM
      1 C02         67.7050   110.4350    14.4100 c          1 9Y4       0.586100
      2 C04         65.4440   109.9970    15.4430 c3         1 9Y4       0.147300
      3 C05         65.1330   110.9570    16.5820 ca         1 9Y4      -0.117300
      4 C06         64.8900   110.4680    17.8790 ca         1 9Y4      -0.093500
      5 C07         64.6060   111.3570    18.9310 ca         1 9Y4      -0.114500
      6 C08         64.5610   112.7440    18.6960 ca         1 9Y4      -0.070300
      7 C09         64.2580   113.7060    19.8350 c3         1 9Y4      -0.047800
      8 C10         64.8090   113.2330    17.4000 ca         1 9Y4      -0.114500
      9 C11         65.0930   112.3450    16.3480 ca         1 9Y4      -0.093500
     10 C12         69.2130   110.0230    14.4840 c3         1 9Y4       0.127800
     11 C14         69.0650   107.4210    14.5050 ca         1 9Y4       0.304000
     12 C15         68.4410   107.3350    13.2470 ca         1 9Y4      -0.180000
     13 C16         68.0340   106.0870    12.7410 ca         1 9Y4      -0.069500
     14 C17         68.2520   104.9210    13.4930 ca         1 9Y4      -0.155000
     15 C18         68.8770   105.0020    14.7490 ca         1 9Y4      -0.069500
     16 C19         69.2820   106.2510    15.2500 ca         1 9Y4      -0.180000
     17 N03         66.8830   109.7850    15.3040 ns         1 9Y4      -0.491900
     18 N13         69.4760   108.6460    15.0380 nu         1 9Y4      -0.979200
     19 O01         67.2780   111.2650    13.6150 o          1 9Y4      -0.615100
     20 H1          65.0310   110.3860    14.5020 h1         1 9Y4       0.063200
     21 H2          64.9650   109.0280    15.6350 h1         1 9Y4       0.063200
     22 H3          64.9220   109.3980    18.0750 ha         1 9Y4       0.116500
     23 H4          64.4210   110.9660    19.9290 ha         1 9Y4       0.111500
     24 H5          65.1810   114.0160    20.3400 hc         1 9Y4       0.042367
     25 H6          63.7550   114.6100    19.4720 hc         1 9Y4       0.042367
     26 H7          63.6040   113.2450    20.5850 hc         1 9Y4       0.042367
     27 H8          64.7840   114.3030    17.2070 ha         1 9Y4       0.111500
     28 H9          65.2850   112.7360    15.3510 ha         1 9Y4       0.116500
     29 H10         69.6300   110.1130    13.4720 h1         1 9Y4       0.069700
     30 H11         69.7090   110.7730    15.1140 h1         1 9Y4       0.069700
     31 H12         68.2700   108.2260    12.6520 ha         1 9Y4       0.114000
     32 H13         67.5510   106.0250    11.7680 ha         1 9Y4       0.110500
     33 H14         67.9380   103.9550    13.1030 ha         1 9Y4       0.115000
     34 H15         69.0470   104.0990    15.3320 ha         1 9Y4       0.110500
     35 H16         69.7640   106.3070    16.2220 ha         1 9Y4       0.114000
     36 H17         67.3400   109.0890    15.8820 hn         1 9Y4       0.332500
     37 H18         70.0080   108.5880    15.9110 hn         1 9Y4       0.479000
@<TRIPOS>BOND
     1     1    10 1   
     2     1    17 1   
     3     1    19 2   
     4     2     3 1   
     5     2    17 1   
     6     2    20 1   
     7     2    21 1   
     8     3     4 ar  
     9     3     9 ar  
    10     4     5 ar  
    11     4    22 1   
    12     5     6 ar  
    13     5    23 1   
    14     6     7 1   
    15     6     8 ar  
    16     7    24 1   
    17     7    25 1   
    18     7    26 1   
    19     8     9 ar  
    20     8    27 1   
    21     9    28 1   
    22    10    18 1   
    23    10    29 1   
    24    10    30 1   
    25    11    12 ar  
    26    11    16 ar  
    27    11    18 1   
    28    12    13 ar  
    29    12    31 1   
    30    13    14 ar  
    31    13    32 1   
    32    14    15 ar  
    33    14    33 1   
    34    15    16 ar  
    35    15    34 1   
    36    16    35 1   
    37    17    36 1   
    38    18    37 1   
@<TRIPOS>SUBSTRUCTURE
     1 9Y4         1 TEMP              0 ****  ****    0 ROOT
