@<TRIPOS>MOLECULE
9Y5
   35    38     1     0     0
SMALL
No Charge or Current Charge


@<TRIPOS>ATOM
      1 CAT          2.2350     3.8100     0.8870 c3         1 9Y5      -0.120400
      2 CAK          1.2680     2.6940     0.5980 cc         1 9Y5       0.297300
      3 NAL         -0.0380     2.8640     0.5800 nd         1 9Y5      -0.491800
      4 CAI          1.6750     1.3680     0.2870 cc         1 9Y5       0.138000
      5 NAH          2.9740     0.9220     0.1910 nu         1 9Y5      -0.838100
      6 SAG          3.3270    -0.5250    -0.5720 sy         1 9Y5       1.162600
      7 OAV          3.6910    -0.1200    -1.9310 o          1 9Y5      -0.522500
      8 OAW          4.2840    -1.1950     0.3110 o          1 9Y5      -0.522500
      9 CAD          1.7810    -1.4450    -0.6110 ca         1 9Y5      -0.290500
     10 CAC          1.8270    -2.8080    -0.9660 ca         1 9Y5      -0.006000
     11 CAB          0.6470    -3.5640    -1.0060 ca         1 9Y5      -0.120000
     12 CAA         -0.5760    -2.9640    -0.6800 ca         1 9Y5      -0.057000
     13 CAF         -0.6250    -1.6060    -0.3230 ca         1 9Y5      -0.110000
     14 CAE          0.5480    -0.8140    -0.2950 ca         1 9Y5       0.069000
     15 CAJ          0.5550     0.6240     0.0870 cd         1 9Y5      -0.133000
     16 NAM         -0.4650     1.5820     0.2770 na         1 9Y5       0.248000
     17 CAN         -1.7690     1.2600    -0.0880 ca         1 9Y5       0.013800
     18 CAO         -2.7570     1.0950     0.9030 ca         1 9Y5      -0.102000
     19 CAP         -4.0750     0.7790     0.5350 ca         1 9Y5       0.122000
     20 Cl1         -5.3020     0.5630     1.7760 cl         1 9Y5      -0.183000
     21 CAQ         -4.4160     0.6330    -0.8190 ca         1 9Y5      -0.096000
     22 CAR         -3.4370     0.8100    -1.8130 ca         1 9Y5      -0.097000
     23 CAS         -2.1160     1.1280    -1.4480 ca         1 9Y5      -0.087000
     24 H1           2.8050     4.0710    -0.0120 hc         1 9Y5       0.055700
     25 H2           1.7110     4.7100     1.2280 hc         1 9Y5       0.055700
     26 H3           2.9440     3.5170     1.6700 hc         1 9Y5       0.055700
     27 H4           3.6650     1.5910    -0.1250 hn         1 9Y5       0.498000
     28 H5           2.7750    -3.2840    -1.2120 ha         1 9Y5       0.139000
     29 H6           0.6830    -4.6160    -1.2800 ha         1 9Y5       0.124000
     30 H7          -1.4900    -3.5540    -0.6950 ha         1 9Y5       0.121000
     31 H8          -1.5890    -1.2030    -0.0450 ha         1 9Y5       0.124000
     32 H9          -2.5020     1.2080     1.9540 ha         1 9Y5       0.153000
     33 H10         -5.4380     0.3870    -1.0980 ha         1 9Y5       0.136000
     34 H11         -3.7010     0.7020    -2.8630 ha         1 9Y5       0.127000
     35 H12         -1.3610     1.2660    -2.2200 ha         1 9Y5       0.140000
@<TRIPOS>BOND
     1     1     2 1   
     2     1    24 1   
     3     1    25 1   
     4     1    26 1   
     5     2     3 2   
     6     2     4 1   
     7     3    16 1   
     8     4     5 1   
     9     4    15 2   
    10     5     6 1   
    11     5    27 1   
    12     6     7 2   
    13     6     8 2   
    14     6     9 1   
    15     9    10 ar  
    16     9    14 ar  
    17    10    11 ar  
    18    10    28 1   
    19    11    12 ar  
    20    11    29 1   
    21    12    13 ar  
    22    12    30 1   
    23    13    14 ar  
    24    13    31 1   
    25    14    15 1   
    26    15    16 1   
    27    16    17 1   
    28    17    18 ar  
    29    17    23 ar  
    30    18    19 ar  
    31    18    32 1   
    32    19    20 1   
    33    19    21 ar  
    34    21    22 ar  
    35    21    33 1   
    36    22    23 ar  
    37    22    34 1   
    38    23    35 1   
@<TRIPOS>SUBSTRUCTURE
     1 9Y5         1 TEMP              0 ****  ****    0 ROOT
