@<TRIPOS>MOLECULE
9Y5
   35    38     1     0     0
SMALL
abcg2


@<TRIPOS>ATOM
      1 CAT          2.1260     3.9420     0.2660 c3         1 9Y5      -0.120400
      2 CAK          1.2960     2.7260     0.0710 cc         1 9Y5       0.297300
      3 NAL         -0.0180     2.7660    -0.0290 nd         1 9Y5      -0.491800
      4 CAI          1.7300     1.3940    -0.0450 cc         1 9Y5       0.138000
      5 NAH          3.0240     0.8630     0.0460 nu         1 9Y5      -0.838100
      6 SAG          3.0580    -0.6640     0.6920 sy         1 9Y5       1.162600
      7 OAV          4.3480    -1.2480     0.3800 o          1 9Y5      -0.522500
      8 OAW          2.6250    -0.5570     2.0700 o          1 9Y5      -0.522500
      9 CAD          1.7820    -1.5000    -0.2080 ca         1 9Y5      -0.290500
     10 CAC          1.9510    -2.8330    -0.5440 ca         1 9Y5      -0.006000
     11 CAB          0.9300    -3.4940    -1.2080 ca         1 9Y5      -0.120000
     12 CAA         -0.2300    -2.8110    -1.5480 ca         1 9Y5      -0.057000
     13 CAF         -0.3850    -1.4710    -1.2280 ca         1 9Y5      -0.110000
     14 CAE          0.6150    -0.7910    -0.5350 ca         1 9Y5       0.069000
     15 CAJ          0.5980     0.6310    -0.2390 cd         1 9Y5      -0.133000
     16 NAM         -0.4360     1.5070    -0.2010 na         1 9Y5       0.248000
     17 CAN         -1.8220     1.2380    -0.1830 ca         1 9Y5       0.013800
     18 CAO         -2.3200     0.2980     0.7090 ca         1 9Y5      -0.102000
     19 CAP         -3.6800     0.0360     0.7010 ca         1 9Y5       0.122000
     20 CL1         -4.3110    -1.1420     1.7990 cl         1 9Y5      -0.183000
     21 CAQ         -4.5420     0.7070    -0.1530 ca         1 9Y5      -0.096000
     22 CAR         -4.0210     1.6580    -1.0200 ca         1 9Y5      -0.097000
     23 CAS         -2.6620     1.9270    -1.0470 ca         1 9Y5      -0.087000
     24 H1           2.7480     4.1360    -0.6090 hc         1 9Y5       0.055700
     25 H2           1.5010     4.8150     0.4380 hc         1 9Y5       0.055700
     26 H3           2.7950     3.8210     1.1190 hc         1 9Y5       0.055700
     27 H4           3.6340     0.9840    -0.7580 hn         1 9Y5       0.498000
     28 H5           2.8630    -3.3550    -0.2890 ha         1 9Y5       0.139000
     29 H6           1.0460    -4.5370    -1.4680 ha         1 9Y5       0.124000
     30 H7          -1.0200    -3.3200    -2.0830 ha         1 9Y5       0.121000
     31 H8          -1.2810    -0.9560    -1.5440 ha         1 9Y5       0.124000
     32 H9          -1.6620    -0.2150     1.3980 ha         1 9Y5       0.153000
     33 H10         -5.6010     0.4920    -0.1460 ha         1 9Y5       0.136000
     34 H11         -4.6850     2.1850    -1.6900 ha         1 9Y5       0.127000
     35 H12         -2.2550     2.6560    -1.7330 ha         1 9Y5       0.140000
@<TRIPOS>BOND
     1     1     2 1   
     2     1    24 1   
     3     1    25 1   
     4     1    26 1   
     5     2     3 2   
     6     2     4 1   
     7     3    16 1   
     8     4     5 1   
     9     4    15 2   
    10     5     6 1   
    11     5    27 1   
    12     6     7 2   
    13     6     8 2   
    14     6     9 1   
    15     9    10 ar  
    16     9    14 ar  
    17    10    11 ar  
    18    10    28 1   
    19    11    12 ar  
    20    11    29 1   
    21    12    13 ar  
    22    12    30 1   
    23    13    14 ar  
    24    13    31 1   
    25    14    15 1   
    26    15    16 1   
    27    16    17 1   
    28    17    18 ar  
    29    17    23 ar  
    30    18    19 ar  
    31    18    32 1   
    32    19    20 1   
    33    19    21 ar  
    34    21    22 ar  
    35    21    33 1   
    36    22    23 ar  
    37    22    34 1   
    38    23    35 1   
@<TRIPOS>SUBSTRUCTURE
     1 9Y5         1 TEMP              0 ****  ****    0 ROOT
