@<TRIPOS>MOLECULE
9Y6
   18    18     1     0     0
SMALL
bcc


@<TRIPOS>ATOM
      1 C1          -2.2500     1.4460     0.0170 ca         1 9Y6      -0.132500
      2 C2          -3.2240     0.4520     0.0230 ca         1 9Y6      -0.111000
      3 C3          -2.8470    -0.8840     0.0230 ca         1 9Y6      -0.132500
      4 C4          -1.5030    -1.2230     0.0160 ca         1 9Y6      -0.102500
      5 C5          -0.5150    -0.2350     0.0090 ca         1 9Y6      -0.079800
      6 C6          -0.9090     1.1080     0.0100 ca         1 9Y6      -0.102500
      7 C7           0.8820    -0.6450     0.0010 ce         1 9Y6      -0.035200
      8 C8           1.9630     0.1500    -0.0170 cf         1 9Y6      -0.272200
      9 C9           3.2870    -0.4530    -0.0230 c          1 9Y6       0.568100
     10 O10          4.3280     0.1700    -0.0410 o          1 9Y6      -0.517100
     11 H1          -2.5410     2.4890     0.0170 ha         1 9Y6       0.134500
     12 H2          -4.2720     0.7200     0.0290 ha         1 9Y6       0.133000
     13 H3          -3.5990    -1.6610     0.0280 ha         1 9Y6       0.134500
     14 H4          -1.2120    -2.2670     0.0160 ha         1 9Y6       0.133000
     15 H5          -0.1660     1.8950     0.0060 ha         1 9Y6       0.133000
     16 H6           1.0460    -1.7200     0.0100 ha         1 9Y6       0.121000
     17 H7           1.8940     1.2320    -0.0280 ha         1 9Y6       0.149000
     18 H8           3.2890    -1.5580    -0.0110 h4         1 9Y6      -0.019800
@<TRIPOS>BOND
     1     1     2 ar  
     2     1     6 ar  
     3     1    11 1   
     4     2     3 ar  
     5     2    12 1   
     6     3     4 ar  
     7     3    13 1   
     8     4     5 ar  
     9     4    14 1   
    10     5     6 ar  
    11     5     7 1   
    12     6    15 1   
    13     7     8 2   
    14     7    16 1   
    15     8     9 1   
    16     8    17 1   
    17     9    10 2   
    18     9    18 1   
@<TRIPOS>SUBSTRUCTURE
     1 9Y6         1 TEMP              0 ****  ****    0 ROOT
