@<TRIPOS>MOLECULE
9Y6
   18    18     1     0     0
SMALL
No Charge or Current Charge


@<TRIPOS>ATOM
      1 C1          -2.2790     1.4660     0.0150 ca         1 9Y6      -0.114500
      2 C2          -3.2730     0.4750     0.0250 ca         1 9Y6      -0.093000
      3 C3          -2.9070    -0.8810     0.0270 ca         1 9Y6      -0.114500
      4 C4          -1.5490    -1.2440     0.0170 ca         1 9Y6      -0.084500
      5 C5          -0.5420    -0.2570     0.0070 ca         1 9Y6      -0.079800
      6 C6          -0.9200     1.1030     0.0050 ca         1 9Y6      -0.084500
      7 C7           0.8910    -0.6740    -0.0030 ce         1 9Y6      -0.085200
      8 C8           2.0130     0.1050    -0.0140 cf         1 9Y6      -0.322200
      9 C9           3.3920    -0.4420    -0.0230 c          1 9Y6       0.568100
     10 O10          4.3850     0.2740    -0.0320 o          1 9Y6      -0.517100
     11 H1          -2.5600     2.5170     0.0140 ha         1 9Y6       0.116500
     12 H2          -4.3240     0.7560     0.0320 ha         1 9Y6       0.115000
     13 H3          -3.6760    -1.6510     0.0350 ha         1 9Y6       0.116500
     14 H4          -1.2820    -2.2990     0.0190 ha         1 9Y6       0.115000
     15 H5          -0.1700     1.8890    -0.0030 ha         1 9Y6       0.115000
     16 H6           1.0320    -1.7580    -0.0000 ha         1 9Y6       0.171000
     17 H7           1.9380     1.1890    -0.0170 ha         1 9Y6       0.199000
     18 H8           3.4820    -1.5510    -0.0200 h4         1 9Y6      -0.019800
@<TRIPOS>BOND
     1     1     2 ar  
     2     1     6 ar  
     3     1    11 1   
     4     2     3 ar  
     5     2    12 1   
     6     3     4 ar  
     7     3    13 1   
     8     4     5 ar  
     9     4    14 1   
    10     5     6 ar  
    11     5     7 1   
    12     6    15 1   
    13     7     8 2   
    14     7    16 1   
    15     8     9 1   
    16     8    17 1   
    17     9    10 2   
    18     9    18 1   
@<TRIPOS>SUBSTRUCTURE
     1 9Y6         1 TEMP              0 ****  ****    0 ROOT
