@<TRIPOS>MOLECULE
9Y7
   46    49     1     0     0
SMALL
No Charge or Current Charge


@<TRIPOS>ATOM
      1 C10          0.5970     0.1500     1.7920 cc         1 9Y7      -0.290300
      2 C11          1.7780     0.8060     1.9860 cd         1 9Y7       0.087100
      3 C18         -2.0420    -3.2000     0.1380 ca         1 9Y7      -0.142000
      4 C19         -1.8850    -3.5250    -1.2150 ca         1 9Y7       0.124000
      5 C22          0.0070    -2.0000    -1.3520 ca         1 9Y7      -0.093000
      6 C26          5.8980     0.8930    -0.3270 cc         1 9Y7       0.257500
      7 C27          6.1880     1.7040     0.7550 cd         1 9Y7      -0.233000
      8 C29          6.9460     0.6170    -1.3970 c          1 9Y7       0.628500
      9 N01         -5.5780     0.3200    -1.9570 n8         1 9Y7      -0.994100
     10 O03         -5.3940     2.7350    -1.6970 o          1 9Y7      -0.554000
     11 O04         -6.8550     1.3360    -0.1130 o          1 9Y7      -0.554000
     12 C05         -4.1830     1.2040     0.1320 ca         1 9Y7      -0.274500
     13 C06         -4.2880     0.3380     1.2390 ca         1 9Y7      -0.009500
     14 C07         -3.1590     0.0660     2.0300 ca         1 9Y7      -0.124500
     15 C08         -1.9130     0.6460     1.7230 ca         1 9Y7      -0.013300
     16 C09         -0.6860     0.3370     2.5830 c3         1 9Y7       0.063200
     17 O12          2.0740     1.7160     2.9380 oh         1 9Y7      -0.508100
     18 N13          2.5990     0.3800     0.9350 na         1 9Y7       0.145300
     19 N14          1.9890    -0.5210     0.0780 nd         1 9Y7      -0.420800
     20 C15          0.7830    -0.6510     0.6110 cc         1 9Y7       0.301500
     21 C16         -0.1630    -1.6190     0.0040 ca         1 9Y7      -0.085500
     22 C17         -1.1810    -2.2670     0.7440 ca         1 9Y7      -0.095000
     23 C21         -0.8520    -2.9310    -1.9580 ca         1 9Y7       0.131000
     24 F23         -0.6760    -3.2510    -3.2610 f          1 9Y7      -0.164000
     25 C24          3.9410     0.8060     0.7260 cd         1 9Y7       0.480900
     26 N25          4.6110     0.3750    -0.3400 nc         1 9Y7      -0.567000
     27 S28          4.8170     1.8570     1.8410 ss         1 9Y7      -0.128400
     28 O30          8.0590     1.1240    -1.2920 o          1 9Y7      -0.691500
     29 O31          6.6630    -0.1080    -2.3470 o          1 9Y7      -0.691500
     30 C32         -1.8160     1.5200     0.6220 ca         1 9Y7      -0.124500
     31 C33         -2.9410     1.7970    -0.1730 ca         1 9Y7      -0.009500
     32 H1          -2.8220    -3.6820     0.7230 ha         1 9Y7       0.127000
     33 H2           0.7930    -1.5560    -1.9580 ha         1 9Y7       0.156000
     34 H3           7.1220     2.2100     0.9680 h4         1 9Y7       0.169000
     35 H4          -5.6210     0.8340    -2.8340 hn         1 9Y7       0.471000
     36 H5          -4.6100     0.0180    -1.8970 hn         1 9Y7       0.471000
     37 H6          -5.2410    -0.1280     1.4900 ha         1 9Y7       0.134000
     38 H7          -3.2550    -0.6040     2.8810 ha         1 9Y7       0.119000
     39 H8          -0.8570    -0.5330     3.2250 hc         1 9Y7       0.045200
     40 H9          -0.5650     1.1690     3.2850 hc         1 9Y7       0.045200
     41 H11         -1.2990    -2.0920     1.8050 ha         1 9Y7       0.122000
     42 H13         -0.8650     1.9870     0.3770 ha         1 9Y7       0.119000
     43 H14         -2.8400     2.4730    -1.0210 ha         1 9Y7       0.134000
     44 H15          1.2910     1.7950     3.5220 ho         1 9Y7       0.482000
     45 F20         -2.7150    -4.4260    -1.7900 f          1 9Y7      -0.170000
     46 S02         -5.6260     1.5480    -0.8780 sy         1 9Y7       1.124600
@<TRIPOS>BOND
     1     1     2 2   
     2     1    16 1   
     3     1    20 1   
     4     2    17 1   
     5     2    18 1   
     6     3     4 ar  
     7     3    22 ar  
     8     3    32 1   
     9     4    23 ar  
    10     4    45 1   
    11     5    21 ar  
    12     5    23 ar  
    13     5    33 1   
    14     6     7 2   
    15     6     8 1   
    16     6    26 1   
    17     7    27 1   
    18     7    34 1   
    19     8    28 1   
    20     8    29 1   
    21     9    35 1   
    22     9    36 1   
    23     9    46 1   
    24    10    46 2   
    25    11    46 2   
    26    12    13 ar  
    27    12    31 ar  
    28    12    46 1   
    29    13    14 ar  
    30    13    37 1   
    31    14    15 ar  
    32    14    38 1   
    33    15    16 1   
    34    15    30 ar  
    35    16    39 1   
    36    16    40 1   
    37    17    44 1   
    38    18    19 1   
    39    18    25 1   
    40    19    20 2   
    41    20    21 1   
    42    21    22 ar  
    43    22    41 1   
    44    23    24 1   
    45    25    26 2   
    46    25    27 1   
    47    30    31 ar  
    48    30    42 1   
    49    31    43 1   
@<TRIPOS>SUBSTRUCTURE
     1 9Y7         1 TEMP              0 ****  ****    0 ROOT
