@<TRIPOS>MOLECULE
9Y7
   46    49     1     0     0
SMALL
bcc


@<TRIPOS>ATOM
      1 C10          0.4360    -0.0310     1.8420 cc         1 9Y7      -0.355600
      2 C11          1.5340     0.7890     1.8520 cd         1 9Y7       0.137800
      3 C18         -1.5030    -3.9840     0.7690 ca         1 9Y7      -0.160000
      4 C19         -1.7290    -4.1140    -0.5850 ca         1 9Y7       0.088900
      5 C22         -0.3410    -2.2070    -1.0340 ca         1 9Y7      -0.111000
      6 C26          5.5790     0.9450    -0.4710 cc         1 9Y7       0.322800
      7 C27          5.7110     2.0430     0.3170 cd         1 9Y7      -0.171400
      8 C29          6.6320     0.4670    -1.4520 c          1 9Y7       0.839100
      9 N01         -4.6200     1.4770    -2.5730 n8         1 9Y7      -0.883700
     10 O03         -5.2890     3.4630    -1.0450 o          1 9Y7      -0.624800
     11 O04         -6.4280     1.2430    -0.8870 o          1 9Y7      -0.624800
     12 C05         -3.9450     1.4720    -0.0170 ca         1 9Y7      -0.274500
     13 C06         -3.9650     0.1660     0.4490 ca         1 9Y7      -0.027500
     14 C07         -2.9690    -0.2550     1.3160 ca         1 9Y7      -0.142500
     15 C08         -1.9510     0.6090     1.7080 ca         1 9Y7      -0.013300
     16 C09         -0.8380     0.1370     2.6100 c3         1 9Y7       0.063200
     17 O12          1.8620     1.8650     2.5520 oh         1 9Y7      -0.469100
     18 N13          2.3950     0.3440     0.8970 na         1 9Y7       0.094600
     19 N14          1.9000    -0.7310     0.2530 nd         1 9Y7      -0.420800
     20 C15          0.7360    -0.9600     0.8130 cc         1 9Y7       0.366800
     21 C16         -0.1130    -2.0570     0.3330 ca         1 9Y7      -0.085500
     22 C17         -0.6920    -2.9550     1.2250 ca         1 9Y7      -0.113000
     23 C21         -1.1460    -3.2310    -1.4790 ca         1 9Y7       0.095900
     24 F23         -1.3810    -3.3840    -2.7860 f          1 9Y7      -0.128900
     25 C24          3.6520     0.8360     0.5650 cd         1 9Y7       0.480900
     26 N25          4.3970     0.2700    -0.3150 nc         1 9Y7      -0.567000
     27 S28          4.3190     2.2600     1.2960 ss         1 9Y7      -0.273300
     28 O30          7.6690     1.1540    -1.5020 o          1 9Y7      -0.796800
     29 O31          6.3590    -0.5550    -2.1020 o          1 9Y7      -0.796800
     30 C32         -1.9540     1.9160     1.2270 ca         1 9Y7      -0.142500
     31 C33         -2.9490     2.3580     0.3720 ca         1 9Y7      -0.027500
     32 H1          -1.9520    -4.6860     1.4590 ha         1 9Y7       0.145000
     33 H2           0.0920    -1.5190    -1.7480 ha         1 9Y7       0.174000
     34 H3           6.5420     2.7260     0.3800 h4         1 9Y7       0.187000
     35 H4          -5.3460     1.4500    -3.2830 hn         1 9Y7       0.415800
     36 H5          -3.8360     2.0330    -2.9000 hn         1 9Y7       0.415800
     37 H6          -4.7440    -0.5220     0.1510 ha         1 9Y7       0.152000
     38 H7          -2.9860    -1.2710     1.6870 ha         1 9Y7       0.137000
     39 H8          -1.1280    -0.7950     3.0960 hc         1 9Y7       0.045200
     40 H9          -0.6980     0.8590     3.4190 hc         1 9Y7       0.045200
     41 H11         -0.5000    -2.8710     2.2860 ha         1 9Y7       0.140000
     42 H13         -1.1720     2.6050     1.5250 ha         1 9Y7       0.137000
     43 H14         -2.9410     3.3810     0.0190 ha         1 9Y7       0.152000
     44 H15          1.2490     2.0100     3.2840 ho         1 9Y7       0.443000
     45 F20         -2.5100    -5.0920    -1.0520 f          1 9Y7      -0.134900
     46 S02         -5.2130     2.0100    -1.1240 sy         1 9Y7       1.266200
@<TRIPOS>BOND
     1     1     2 2   
     2     1    16 1   
     3     1    20 1   
     4     2    17 1   
     5     2    18 1   
     6     3     4 ar  
     7     3    22 ar  
     8     3    32 1   
     9     4    23 ar  
    10     4    45 1   
    11     5    21 ar  
    12     5    23 ar  
    13     5    33 1   
    14     6     7 2   
    15     6     8 1   
    16     6    26 1   
    17     7    27 1   
    18     7    34 1   
    19     8    28 1   
    20     8    29 1   
    21     9    35 1   
    22     9    36 1   
    23     9    46 1   
    24    10    46 2   
    25    11    46 2   
    26    12    13 ar  
    27    12    31 ar  
    28    12    46 1   
    29    13    14 ar  
    30    13    37 1   
    31    14    15 ar  
    32    14    38 1   
    33    15    16 1   
    34    15    30 ar  
    35    16    39 1   
    36    16    40 1   
    37    17    44 1   
    38    18    19 1   
    39    18    25 1   
    40    19    20 2   
    41    20    21 1   
    42    21    22 ar  
    43    22    41 1   
    44    23    24 1   
    45    25    26 2   
    46    25    27 1   
    47    30    31 ar  
    48    30    42 1   
    49    31    43 1   
@<TRIPOS>SUBSTRUCTURE
     1 9Y7         1 TEMP              0 ****  ****    0 ROOT
