@<TRIPOS>MOLECULE
9Y8
   35    38     1     0     0
SMALL
No Charge or Current Charge


@<TRIPOS>ATOM
      1 CAK         -0.3910     1.6640    -1.4000 c3         1 9Y8       0.182100
      2 NAP          0.2560     0.9540    -0.2790 nh         1 9Y8      -0.687300
      3 CAO          0.1170    -0.4170    -0.1030 cc         1 9Y8       0.137000
      4 SAQ          1.6520     1.6660     0.4080 sy         1 9Y8       1.157600
      5 OAL          1.4270     1.7090     1.8580 o          1 9Y8      -0.521000
      6 OAM          1.9720     2.8900    -0.3380 o          1 9Y8      -0.521000
      7 CAT          2.9270     0.4360     0.0760 ca         1 9Y8      -0.281500
      8 CAU          4.2800     0.8290     0.0380 ca         1 9Y8      -0.002000
      9 CAV          5.2850    -0.1380    -0.1330 ca         1 9Y8      -0.120000
     10 CAW          4.9430    -1.4950    -0.2540 ca         1 9Y8      -0.055000
     11 CAR          3.5930    -1.8860    -0.2160 ca         1 9Y8      -0.116000
     12 CAS          2.5790    -0.9190    -0.0640 ca         1 9Y8       0.065000
     13 CAN          1.1630    -1.2830    -0.0630 cd         1 9Y8      -0.144000
     14 NAH          0.5880    -2.5580    -0.0350 na         1 9Y8       0.037800
     15 NAI         -0.8050    -2.5100    -0.0450 nd         1 9Y8      -0.501800
     16 CAJ         -1.0740    -1.2110    -0.0870 cc         1 9Y8       0.351500
     17 CAG         -2.4740    -0.7360    -0.0030 ca         1 9Y8      -0.143500
     18 CAB         -3.5390    -1.6240    -0.3000 ca         1 9Y8      -0.056500
     19 CAC         -4.8770    -1.2080    -0.1940 ca         1 9Y8      -0.161000
     20 CAD         -5.1740     0.0920     0.2340 ca         1 9Y8       0.181000
     21 FAA         -6.4610     0.4900     0.3400 f          1 9Y8      -0.178000
     22 CAE         -4.1400     0.9730     0.5720 ca         1 9Y8      -0.161000
     23 CAF         -2.8000     0.5600     0.4660 ca         1 9Y8      -0.056500
     24 H1          -0.7890     2.6310    -1.0670 h1         1 9Y8       0.058033
     25 H2           0.3280     1.8430    -2.2110 h1         1 9Y8       0.058033
     26 H3          -1.2200     1.0750    -1.8130 h1         1 9Y8       0.058033
     27 H4           4.5560     1.8760     0.1540 ha         1 9Y8       0.141000
     28 H5           6.3290     0.1640    -0.1610 ha         1 9Y8       0.124000
     29 H6           5.7230    -2.2430    -0.3810 ha         1 9Y8       0.121000
     30 H7           3.3430    -2.9370    -0.3240 ha         1 9Y8       0.113000
     31 H8           1.0880    -3.4460    -0.0020 hn         1 9Y8       0.386000
     32 H9          -3.3340    -2.6390    -0.6350 ha         1 9Y8       0.133500
     33 H10         -5.6840    -1.8930    -0.4410 ha         1 9Y8       0.134000
     34 H11         -4.3770     1.9720     0.9290 ha         1 9Y8       0.134000
     35 H12         -2.0260     1.2510     0.7850 ha         1 9Y8       0.133500
@<TRIPOS>BOND
     1     1     2 1   
     2     1    24 1   
     3     1    25 1   
     4     1    26 1   
     5     2     3 1   
     6     2     4 1   
     7     3    13 2   
     8     3    16 1   
     9     4     5 2   
    10     4     6 2   
    11     4     7 1   
    12     7     8 ar  
    13     7    12 ar  
    14     8     9 ar  
    15     8    27 1   
    16     9    10 ar  
    17     9    28 1   
    18    10    11 ar  
    19    10    29 1   
    20    11    12 ar  
    21    11    30 1   
    22    12    13 1   
    23    13    14 1   
    24    14    15 1   
    25    14    31 1   
    26    15    16 2   
    27    16    17 1   
    28    17    18 ar  
    29    17    23 ar  
    30    18    19 ar  
    31    18    32 1   
    32    19    20 ar  
    33    19    33 1   
    34    20    21 1   
    35    20    22 ar  
    36    22    23 ar  
    37    22    34 1   
    38    23    35 1   
@<TRIPOS>SUBSTRUCTURE
     1 9Y8         1 TEMP              0 ****  ****    0 ROOT
