@<TRIPOS>MOLECULE
9Y8
   35    38     1     0     0
SMALL
abcg2


@<TRIPOS>ATOM
      1 CAK          0.0090     1.5810    -1.4460 c3         1 9Y8       0.182100
      2 NAP          0.2420     1.0250    -0.1090 nh         1 9Y8      -0.687300
      3 CAO          0.0630    -0.3650     0.0280 cc         1 9Y8       0.137000
      4 SAQ          1.5910     1.5350     0.7260 sy         1 9Y8       1.157600
      5 OAL          1.3490     1.2570     2.1270 o          1 9Y8      -0.521000
      6 OAM          1.9120     2.8850     0.3050 o          1 9Y8      -0.521000
      7 CAT          2.8540     0.4260     0.1610 ca         1 9Y8      -0.281500
      8 CAU          4.1510     0.8810    -0.0100 ca         1 9Y8      -0.002000
      9 CAV          5.1380    -0.0250    -0.3660 ca         1 9Y8      -0.120000
     10 CAW          4.8190    -1.3640    -0.5570 ca         1 9Y8      -0.055000
     11 CAR          3.5140    -1.8080    -0.4110 ca         1 9Y8      -0.116000
     12 CAS          2.5100    -0.9170    -0.0460 ca         1 9Y8       0.065000
     13 CAN          1.1090    -1.2640     0.0570 cd         1 9Y8      -0.144000
     14 NAH          0.5410    -2.4760     0.1650 na         1 9Y8       0.037800
     15 NAI         -0.7800    -2.4220     0.1950 nd         1 9Y8      -0.501800
     16 CAJ         -1.1110    -1.1410     0.1140 cc         1 9Y8       0.351500
     17 CAG         -2.5150    -0.7240     0.1060 ca         1 9Y8      -0.143500
     18 CAB         -3.5200    -1.6460    -0.1940 ca         1 9Y8      -0.056500
     19 CAC         -4.8540    -1.2740    -0.1910 ca         1 9Y8      -0.161000
     20 CAD         -5.1760     0.0340     0.1140 ca         1 9Y8       0.181000
     21 FAA         -6.4660     0.4040     0.1150 f          1 9Y8      -0.178000
     22 CAE         -4.2120     0.9740     0.4180 ca         1 9Y8      -0.161000
     23 CAF         -2.8800     0.5870     0.4140 ca         1 9Y8      -0.056500
     24 H1           0.0170     2.6650    -1.4070 h1         1 9Y8       0.058033
     25 H2           0.7400     1.2300    -2.1780 h1         1 9Y8       0.058033
     26 H3          -0.9810     1.2640    -1.7650 h1         1 9Y8       0.058033
     27 H4           4.3960     1.9240     0.1410 ha         1 9Y8       0.141000
     28 H5           6.1570     0.3150    -0.4950 ha         1 9Y8       0.124000
     29 H6           5.5920    -2.0670    -0.8370 ha         1 9Y8       0.121000
     30 H7           3.2800    -2.8480    -0.6000 ha         1 9Y8       0.113000
     31 H8           0.9990    -3.3670     0.2770 hn         1 9Y8       0.386000
     32 H9          -3.2590    -2.6660    -0.4400 ha         1 9Y8       0.133500
     33 H10         -5.6290    -1.9920    -0.4280 ha         1 9Y8       0.134000
     34 H11         -4.4900     1.9910     0.6590 ha         1 9Y8       0.134000
     35 H12         -2.1260     1.3200     0.6670 ha         1 9Y8       0.133500
@<TRIPOS>BOND
     1     1     2 1   
     2     1    24 1   
     3     1    25 1   
     4     1    26 1   
     5     2     3 1   
     6     2     4 1   
     7     3    13 2   
     8     3    16 1   
     9     4     5 2   
    10     4     6 2   
    11     4     7 1   
    12     7     8 ar  
    13     7    12 ar  
    14     8     9 ar  
    15     8    27 1   
    16     9    10 ar  
    17     9    28 1   
    18    10    11 ar  
    19    10    29 1   
    20    11    12 ar  
    21    11    30 1   
    22    12    13 1   
    23    13    14 1   
    24    14    15 1   
    25    14    31 1   
    26    15    16 2   
    27    16    17 1   
    28    17    18 ar  
    29    17    23 ar  
    30    18    19 ar  
    31    18    32 1   
    32    19    20 ar  
    33    19    33 1   
    34    20    21 1   
    35    20    22 ar  
    36    22    23 ar  
    37    22    34 1   
    38    23    35 1   
@<TRIPOS>SUBSTRUCTURE
     1 9Y8         1 TEMP              0 ****  ****    0 ROOT
