@<TRIPOS>MOLECULE
9Y9
   67    69     1     0     0
SMALL
No Charge or Current Charge


@<TRIPOS>ATOM
      1 C1           5.3890     3.2230     0.0890 ca         1 9Y9      -0.173000
      2 C2           5.8440     2.9070    -1.1920 ca         1 9Y9       0.226000
      3 C3           5.5110     1.6810    -1.7770 ca         1 9Y9      -0.183000
      4 C4           4.5890     2.3070     0.7860 ca         1 9Y9       0.008000
      5 F5           6.6100     3.7890    -1.8690 f          1 9Y9      -0.172000
      6 C6           4.7160     0.7350    -1.0940 ca         1 9Y9       0.060700
      7 C7           4.2410     1.0640     0.2110 ca         1 9Y9      -0.283500
      8 S8           3.1890    -0.0000     1.2280 sy         1 9Y9       1.189600
      9 C9           4.4210    -0.5710    -1.8480 c3         1 9Y9      -0.051100
     10 N10          2.3210    -0.9530     0.1070 n3         1 9Y9      -0.796500
     11 C11          4.4410    -1.8600    -0.9880 c3         1 9Y9      -0.089700
     12 C12          3.0590    -2.1480    -0.3540 c3         1 9Y9       0.233800
     13 C13          4.9330    -3.0870    -1.7940 c3         1 9Y9      -0.084100
     14 C14          0.9260    -1.2870     0.5260 c3         1 9Y9       0.206800
     15 O15          2.2200     0.8680     1.9020 o          1 9Y9      -0.544500
     16 O16          4.0190    -0.9140     2.0200 o          1 9Y9      -0.544500
     17 C17         -0.0980    -0.1770     0.1460 c3         1 9Y9       0.137300
     18 C18         -1.5950    -0.6190     0.1710 c3         1 9Y9       0.099700
     19 N19         -2.4650     0.5510    -0.0080 ns         1 9Y9      -0.497900
     20 C20         -1.9760    -1.7310    -0.8510 c3         1 9Y9      -0.056100
     21 C21         -3.4650    -2.0660    -0.8410 ca         1 9Y9      -0.084300
     22 C22         -4.3230    -1.5370    -1.8270 ca         1 9Y9      -0.097000
     23 C23         -5.6980    -1.8260    -1.8000 ca         1 9Y9      -0.106500
     24 C24         -6.2260    -2.6440    -0.7870 ca         1 9Y9      -0.106000
     25 C25         -5.3760    -3.1760     0.1970 ca         1 9Y9      -0.106500
     26 C26         -4.0000    -2.8880     0.1700 ca         1 9Y9      -0.097000
     27 C27         -3.5810     0.8220     0.7290 c          1 9Y9       0.655100
     28 O28         -3.9390     0.1880     1.7080 o          1 9Y9      -0.541000
     29 O29         -4.2040     1.9020     0.1670 os         1 9Y9      -0.480100
     30 O30          0.2790     0.3390    -1.1440 oh         1 9Y9      -0.653000
     31 C31         -5.4830     2.3890     0.6360 c3         1 9Y9       0.226000
     32 C32         -6.5540     1.2800     0.4610 c3         1 9Y9      -0.108433
     33 C33         -5.3520     2.8830     2.1010 c3         1 9Y9      -0.108433
     34 C34         -5.8020     3.5800    -0.2940 c3         1 9Y9      -0.108433
     35 H1           5.6510     4.1770     0.5390 ha         1 9Y9       0.139000
     36 H3           5.8800     1.4680    -2.7760 ha         1 9Y9       0.131000
     37 H4           4.2400     2.5720     1.7840 ha         1 9Y9       0.140000
     38 H9           3.4610    -0.4900    -2.3720 hc         1 9Y9       0.069200
     39 H9A          5.1650    -0.6890    -2.6450 hc         1 9Y9       0.069200
     40 H11          5.1750    -1.7160    -0.1860 hc         1 9Y9       0.082700
     41 H12          3.1850    -2.8680     0.4660 h1         1 9Y9       0.051200
     42 H12A         2.4530    -2.6530    -1.1200 h1         1 9Y9       0.051200
     43 H13          5.9510    -2.9240    -2.1690 hc         1 9Y9       0.040367
     44 H13A         4.9480    -3.9840    -1.1630 hc         1 9Y9       0.040367
     45 H13B         4.2780    -3.2810    -2.6520 hc         1 9Y9       0.040367
     46 H14          0.6100    -2.2090     0.0230 h1         1 9Y9       0.064200
     47 H14A         0.8690    -1.4950     1.6030 h1         1 9Y9       0.064200
     48 H17         -0.0000     0.6210     0.8930 h1         1 9Y9       0.100700
     49 H18         -1.7860    -1.0250     1.1740 h1         1 9Y9       0.099700
     50 HN19        -2.2880     1.1690    -0.7890 hn         1 9Y9       0.327500
     51 H20         -1.6740    -1.4160    -1.8570 hc         1 9Y9       0.045200
     52 H20A        -1.4070    -2.6420    -0.6360 hc         1 9Y9       0.045200
     53 H22         -3.9250    -0.8950    -2.6090 ha         1 9Y9       0.109000
     54 H23         -6.3550    -1.4110    -2.5610 ha         1 9Y9       0.112000
     55 H24         -7.2900    -2.8660    -0.7650 ha         1 9Y9       0.112000
     56 H25         -5.7830    -3.8090     0.9830 ha         1 9Y9       0.112000
     57 H26         -3.3510    -3.2980     0.9410 ha         1 9Y9       0.109000
     58 HO30         1.2370     0.1080    -1.1980 ho         1 9Y9       0.436000
     59 H32         -6.4250     0.4670     1.1830 hc         1 9Y9       0.048811
     60 H32A        -7.5580     1.6930     0.6110 hc         1 9Y9       0.048811
     61 H32B        -6.5100     0.8550    -0.5490 hc         1 9Y9       0.048811
     62 H33         -4.4700     3.5240     2.2180 hc         1 9Y9       0.048811
     63 H33A        -6.2350     3.4670     2.3860 hc         1 9Y9       0.048811
     64 H33B        -5.2730     2.0510     2.8090 hc         1 9Y9       0.048811
     65 H34         -5.8520     3.2560    -1.3400 hc         1 9Y9       0.048811
     66 H34A        -6.7660     4.0320    -0.0320 hc         1 9Y9       0.048811
     67 H34B        -5.0310     4.3560    -0.2130 hc         1 9Y9       0.048811
@<TRIPOS>BOND
     1     1     2 ar  
     2     1     4 ar  
     3     1    35 1   
     4     2     3 ar  
     5     2     5 1   
     6     3     6 ar  
     7     3    36 1   
     8     4     7 ar  
     9     4    37 1   
    10     6     7 ar  
    11     6     9 1   
    12     7     8 1   
    13     8    10 1   
    14     8    15 2   
    15     8    16 2   
    16     9    11 1   
    17     9    38 1   
    18     9    39 1   
    19    10    12 1   
    20    10    14 1   
    21    11    12 1   
    22    11    13 1   
    23    11    40 1   
    24    12    41 1   
    25    12    42 1   
    26    13    43 1   
    27    13    44 1   
    28    13    45 1   
    29    14    17 1   
    30    14    46 1   
    31    14    47 1   
    32    17    18 1   
    33    17    30 1   
    34    17    48 1   
    35    18    19 1   
    36    18    20 1   
    37    18    49 1   
    38    19    27 1   
    39    19    50 1   
    40    20    21 1   
    41    20    51 1   
    42    20    52 1   
    43    21    22 ar  
    44    21    26 ar  
    45    22    23 ar  
    46    22    53 1   
    47    23    24 ar  
    48    23    54 1   
    49    24    25 ar  
    50    24    55 1   
    51    25    26 ar  
    52    25    56 1   
    53    26    57 1   
    54    27    28 2   
    55    27    29 1   
    56    29    31 1   
    57    30    58 1   
    58    31    32 1   
    59    31    33 1   
    60    31    34 1   
    61    32    59 1   
    62    32    60 1   
    63    32    61 1   
    64    33    62 1   
    65    33    63 1   
    66    33    64 1   
    67    34    65 1   
    68    34    66 1   
    69    34    67 1   
@<TRIPOS>SUBSTRUCTURE
     1 9Y9         1 TEMP              0 ****  ****    0 ROOT
