@<TRIPOS>MOLECULE
9Y9
   67    69     1     0     0
SMALL
abcg2


@<TRIPOS>ATOM
      1 C1           3.9690     3.1180     1.1060 ca         1 9Y9      -0.173000
      2 C2           4.3220     3.2510    -0.2220 ca         1 9Y9       0.226000
      3 C3           4.3060     2.1880    -1.1000 ca         1 9Y9      -0.183000
      4 C4           3.5870     1.8650     1.5440 ca         1 9Y9       0.008000
      5 F5           4.6940     4.4530    -0.6760 f          1 9Y9      -0.172000
      6 C6           3.9230     0.9170    -0.6750 ca         1 9Y9       0.060700
      7 C7           3.5620     0.7810     0.6700 ca         1 9Y9      -0.283500
      8 S8           3.0950    -0.7700     1.4050 sy         1 9Y9       1.189600
      9 C9           3.8960    -0.1730    -1.7180 c3         1 9Y9      -0.051100
     10 N10          2.3880    -1.6300     0.2140 n3         1 9Y9      -0.796500
     11 C11          4.3830    -1.5630    -1.2980 c3         1 9Y9      -0.089700
     12 C12          3.2460    -2.3860    -0.6950 c3         1 9Y9       0.233800
     13 C13          4.9520    -2.3180    -2.4950 c3         1 9Y9      -0.084100
     14 C14          0.9490    -1.8700     0.2540 c3         1 9Y9       0.206800
     15 O15          2.0860    -0.4780     2.4150 o          1 9Y9      -0.544500
     16 O16          4.3170    -1.4400     1.8270 o          1 9Y9      -0.544500
     17 C17          0.1310    -0.6980    -0.2770 c3         1 9Y9       0.137300
     18 C18         -1.3690    -0.8860    -0.0030 c3         1 9Y9       0.099700
     19 N19         -2.0690     0.3110    -0.3980 ns         1 9Y9      -0.497900
     20 C20         -1.9580    -2.1310    -0.6910 c3         1 9Y9      -0.056100
     21 C21         -3.4330    -2.2650    -0.4450 ca         1 9Y9      -0.084300
     22 C22         -4.3560    -1.7340    -1.3410 ca         1 9Y9      -0.097000
     23 C23         -5.7200    -1.8140    -1.0910 ca         1 9Y9      -0.106500
     24 C24         -6.1810    -2.4300     0.0630 ca         1 9Y9      -0.106000
     25 C25         -5.2690    -2.9690     0.9620 ca         1 9Y9      -0.106500
     26 C26         -3.9070    -2.8840     0.7080 ca         1 9Y9      -0.097000
     27 C27         -3.0510     0.8700     0.3450 c          1 9Y9       0.655100
     28 O28         -3.3360     0.5340     1.4750 o          1 9Y9      -0.541000
     29 O29         -3.6230     1.8610    -0.3390 os         1 9Y9      -0.480100
     30 O30          0.3930    -0.4270    -1.6350 oh         1 9Y9      -0.653000
     31 C31         -4.7480     2.6200     0.1740 c3         1 9Y9       0.226000
     32 C32         -5.9640     1.7200     0.3580 c3         1 9Y9      -0.108433
     33 C33         -4.3910     3.3570     1.4600 c3         1 9Y9      -0.108433
     34 C34         -5.0130     3.6300    -0.9360 c3         1 9Y9      -0.108433
     35 H1           3.9880     3.9620     1.7800 ha         1 9Y9       0.139000
     36 H3           4.5920     2.3460    -2.1330 ha         1 9Y9       0.131000
     37 H4           3.3020     1.7420     2.5800 ha         1 9Y9       0.140000
     38 H9           2.8760    -0.2470    -2.1080 hc         1 9Y9       0.069200
     39 H9A          4.5090     0.1750    -2.5520 hc         1 9Y9       0.069200
     40 H11          5.1860    -1.4540    -0.5650 hc         1 9Y9       0.082700
     41 H12          3.6370    -3.2860    -0.2120 h1         1 9Y9       0.051200
     42 H12A         2.6000    -2.7140    -1.5100 h1         1 9Y9       0.051200
     43 H13          5.8400    -1.8180    -2.8800 hc         1 9Y9       0.040367
     44 H13A         5.2360    -3.3360    -2.2230 hc         1 9Y9       0.040367
     45 H13B         4.2210    -2.3780    -3.3040 hc         1 9Y9       0.040367
     46 H14          0.7760    -2.7680    -0.3430 h1         1 9Y9       0.064200
     47 H14A         0.6230    -2.1200     1.2640 h1         1 9Y9       0.064200
     48 H17          0.4320     0.2040     0.2630 h1         1 9Y9       0.100700
     49 H18         -1.4890    -0.9960     1.0760 h1         1 9Y9       0.099700
     50 HN19        -1.9560     0.6210    -1.3510 hn         1 9Y9       0.327500
     51 H20         -1.7740    -2.0800    -1.7680 hc         1 9Y9       0.045200
     52 H20A        -1.4420    -3.0220    -0.3230 hc         1 9Y9       0.045200
     53 H22         -4.0070    -1.2570    -2.2500 ha         1 9Y9       0.109000
     54 H23         -6.4220    -1.3950    -1.8020 ha         1 9Y9       0.112000
     55 H24         -7.2430    -2.4950     0.2610 ha         1 9Y9       0.112000
     56 H25         -5.6190    -3.4580     1.8620 ha         1 9Y9       0.112000
     57 H26         -3.2040    -3.3080     1.4160 ha         1 9Y9       0.109000
     58 HO30         0.2660    -1.2280    -2.1560 ho         1 9Y9       0.436000
     59 H32         -5.8100     0.9690     1.1280 hc         1 9Y9       0.048811
     60 H32A        -6.8220     2.3280     0.6470 hc         1 9Y9       0.048811
     61 H32B        -6.2170     1.2110    -0.5730 hc         1 9Y9       0.048811
     62 H33         -3.4600     3.9160     1.3460 hc         1 9Y9       0.048811
     63 H33A        -5.1780     4.0780     1.6850 hc         1 9Y9       0.048811
     64 H33B        -4.2950     2.6900     2.3130 hc         1 9Y9       0.048811
     65 H34         -5.2270     3.1330    -1.8830 hc         1 9Y9       0.048811
     66 H34A        -5.8750     4.2470    -0.6820 hc         1 9Y9       0.048811
     67 H34B        -4.1600     4.2950    -1.0810 hc         1 9Y9       0.048811
@<TRIPOS>BOND
     1     1     2 ar  
     2     1     4 ar  
     3     1    35 1   
     4     2     3 ar  
     5     2     5 1   
     6     3     6 ar  
     7     3    36 1   
     8     4     7 ar  
     9     4    37 1   
    10     6     7 ar  
    11     6     9 1   
    12     7     8 1   
    13     8    10 1   
    14     8    15 2   
    15     8    16 2   
    16     9    11 1   
    17     9    38 1   
    18     9    39 1   
    19    10    12 1   
    20    10    14 1   
    21    11    12 1   
    22    11    13 1   
    23    11    40 1   
    24    12    41 1   
    25    12    42 1   
    26    13    43 1   
    27    13    44 1   
    28    13    45 1   
    29    14    17 1   
    30    14    46 1   
    31    14    47 1   
    32    17    18 1   
    33    17    30 1   
    34    17    48 1   
    35    18    19 1   
    36    18    20 1   
    37    18    49 1   
    38    19    27 1   
    39    19    50 1   
    40    20    21 1   
    41    20    51 1   
    42    20    52 1   
    43    21    22 ar  
    44    21    26 ar  
    45    22    23 ar  
    46    22    53 1   
    47    23    24 ar  
    48    23    54 1   
    49    24    25 ar  
    50    24    55 1   
    51    25    26 ar  
    52    25    56 1   
    53    26    57 1   
    54    27    28 2   
    55    27    29 1   
    56    29    31 1   
    57    30    58 1   
    58    31    32 1   
    59    31    33 1   
    60    31    34 1   
    61    32    59 1   
    62    32    60 1   
    63    32    61 1   
    64    33    62 1   
    65    33    63 1   
    66    33    64 1   
    67    34    65 1   
    68    34    66 1   
    69    34    67 1   
@<TRIPOS>SUBSTRUCTURE
     1 9Y9         1 TEMP              0 ****  ****    0 ROOT
