@<TRIPOS>MOLECULE
9YA
   65    70     1     0     0
SMALL
bcc


@<TRIPOS>ATOM
      1 C21         -2.2190     2.5720    -0.8340 cp         1 9YA      -0.049000
      2 C20         -1.0460     1.8320    -0.7010 ca         1 9YA      -0.082000
      3 C19         -0.3710     1.3520    -1.8170 ca         1 9YA      -0.096500
      4 C22         -2.6980     2.8400    -2.1170 ca         1 9YA      -0.119000
      5 C23         -2.0240     2.3740    -3.2340 ca         1 9YA      -0.144000
      6 C13          2.9600    -3.2550    -0.3110 cx         1 9YA      -0.114700
      7 C18          0.7970     0.4700    -1.6590 cc         1 9YA       0.344800
      8 C15          3.0780    -4.7380    -0.1610 cx         1 9YA      -0.135900
      9 C14          1.8590    -4.0270     0.3480 cx         1 9YA      -0.135900
     10 C05         -3.5120    -0.9940     0.3990 ca         1 9YA      -0.275500
     11 C06         -2.3170    -1.5510     0.8440 ca         1 9YA      -0.026000
     12 C07         -1.3140    -1.8040    -0.0700 ca         1 9YA      -0.143500
     13 C08         -1.4920    -1.5310    -1.4270 ca         1 9YA      -0.013300
     14 C10          0.8300    -0.9130    -1.9650 cc         1 9YA      -0.275600
     15 C11          2.1030    -1.3150    -1.6470 cd         1 9YA      -0.049600
     16 C24         -0.8660     1.6250    -3.0890 ca         1 9YA      -0.110000
     17 C25         -2.9500     3.0480     0.3570 cp         1 9YA      -0.031000
     18 C26         -4.3470     3.0630     0.3740 ca         1 9YA      -0.124000
     19 C27         -5.0400     3.5130     1.4900 ca         1 9YA      -0.136500
     20 C28         -4.3490     3.9470     2.6140 ca         1 9YA      -0.148000
     21 C29         -2.9590     3.9260     2.6130 ca         1 9YA      -0.136500
     22 C30         -2.2670     3.4830     1.4950 ca         1 9YA      -0.124000
     23 C31          4.0340    -0.0760    -0.6890 cc         1 9YA       0.473900
     24 C33          5.6540     0.4570     0.6850 cd         1 9YA       0.313800
     25 C34          6.4070    -0.0300    -0.3400 cc         1 9YA      -0.158400
     26 C36          6.2290     0.9880     1.9850 c          1 9YA       0.841100
     27 C39         -2.7040    -1.0040    -1.8500 ca         1 9YA      -0.143500
     28 C40         -3.7170    -0.7230    -0.9430 ca         1 9YA      -0.026000
     29 N01         -4.0500     0.3310     2.6250 n8         1 9YA      -0.890700
     30 N16          2.7350    -0.1970    -1.1810 na         1 9YA       0.097600
     31 N17          1.9440     0.8870    -1.1800 nd         1 9YA      -0.436800
     32 N32          4.3040     0.4170     0.4680 nd         1 9YA      -0.561000
     33 O03         -5.9180    -0.0810     0.8730 o          1 9YA      -0.631800
     34 O04         -5.0510    -1.9160     2.3310 o          1 9YA      -0.631800
     35 O37          5.4100     1.3880     2.8270 o          1 9YA      -0.796800
     36 O38          7.4710     0.9650     2.0660 o          1 9YA      -0.796800
     37 S35          5.4070    -0.5250    -1.6340 ss         1 9YA      -0.298300
     38 H1          -0.6810     1.5740     0.2860 ha         1 9YA       0.152000
     39 H2          -3.5950     3.4310    -2.2470 ha         1 9YA       0.126000
     40 H3          -2.4040     2.5950    -4.2230 ha         1 9YA       0.124000
     41 H4           3.6700    -2.6400    -2.2470 hc         1 9YA       0.056200
     42 H5           2.0740    -3.3250    -2.2580 hc         1 9YA       0.056200
     43 H6           3.5850    -2.6610     0.3480 hc         1 9YA       0.107700
     44 H7           2.9770    -5.3490    -1.0500 hc         1 9YA       0.068200
     45 H8           3.7860    -5.1240     0.5620 hc         1 9YA       0.068200
     46 H9           1.7270    -3.9290     1.4180 hc         1 9YA       0.068200
     47 H10          0.9360    -4.1570    -0.2050 hc         1 9YA       0.068200
     48 H11         -2.1570    -1.7620     1.8930 ha         1 9YA       0.150500
     49 H12         -0.3700    -2.2000     0.2820 ha         1 9YA       0.141000
     50 H13         -0.0710    -2.7920    -2.4240 hc         1 9YA       0.049700
     51 H14         -0.6680    -1.4700    -3.4000 hc         1 9YA       0.049700
     52 H15         -0.3500     1.2480    -3.9630 ha         1 9YA       0.134000
     53 H16         -4.9000     2.7030    -0.4830 ha         1 9YA       0.146000
     54 H17         -6.1220     3.5080     1.4850 ha         1 9YA       0.135500
     55 H18         -4.8870     4.2940     3.4860 ha         1 9YA       0.127000
     56 H19         -2.4120     4.2640     3.4830 ha         1 9YA       0.135500
     57 H20         -1.1840     3.4930     1.5040 ha         1 9YA       0.146000
     58 H21          7.4800    -0.1270    -0.3940 h4         1 9YA       0.189000
     59 H22         -2.8570    -0.7730    -2.8960 ha         1 9YA       0.141000
     60 H23         -4.6430    -0.2850    -1.2880 ha         1 9YA       0.150500
     61 H24         -3.9850     1.2780     2.2650 hn         1 9YA       0.421300
     62 H25         -4.5050     0.3280     3.5330 hn         1 9YA       0.421300
     63 C09         -0.3470    -1.7350    -2.3900 c3         1 9YA       0.053200
     64 C12          2.7320    -2.6670    -1.6860 c3         1 9YA       0.015900
     65 S02         -4.7980    -0.6990     1.5720 sy         1 9YA       1.270200
@<TRIPOS>BOND
     1     1     2 ar  
     2     1     4 ar  
     3     1    17 1   
     4     2     3 ar  
     5     2    38 1   
     6     3     7 1   
     7     3    16 ar  
     8     4     5 ar  
     9     4    39 1   
    10     5    16 ar  
    11     5    40 1   
    12     6     8 1   
    13     6     9 1   
    14     6    43 1   
    15     6    64 1   
    16     7    14 1   
    17     7    31 2   
    18     8     9 1   
    19     8    44 1   
    20     8    45 1   
    21     9    46 1   
    22     9    47 1   
    23    10    11 ar  
    24    10    28 ar  
    25    10    65 1   
    26    11    12 ar  
    27    11    48 1   
    28    12    13 ar  
    29    12    49 1   
    30    13    27 ar  
    31    13    63 1   
    32    14    15 2   
    33    14    63 1   
    34    15    30 1   
    35    15    64 1   
    36    16    52 1   
    37    17    18 ar  
    38    17    22 ar  
    39    18    19 ar  
    40    18    53 1   
    41    19    20 ar  
    42    19    54 1   
    43    20    21 ar  
    44    20    55 1   
    45    21    22 ar  
    46    21    56 1   
    47    22    57 1   
    48    23    30 1   
    49    23    32 2   
    50    23    37 1   
    51    24    25 2   
    52    24    26 1   
    53    24    32 1   
    54    25    37 1   
    55    25    58 1   
    56    26    35 1   
    57    26    36 1   
    58    27    28 ar  
    59    27    59 1   
    60    28    60 1   
    61    29    61 1   
    62    29    62 1   
    63    29    65 1   
    64    30    31 1   
    65    33    65 2   
    66    34    65 2   
    67    41    64 1   
    68    42    64 1   
    69    50    63 1   
    70    51    63 1   
@<TRIPOS>SUBSTRUCTURE
     1 9YA         1 TEMP              0 ****  ****    0 ROOT
