@<TRIPOS>MOLECULE
9YA
   65    70     1     0     0
SMALL
No Charge or Current Charge


@<TRIPOS>ATOM
      1 C21         -2.0950     3.1250    -0.1840 cp         1 9YA      -0.049000
      2 C20         -0.9520     2.2860    -0.1650 ca         1 9YA      -0.064000
      3 C19         -0.7430     1.2630    -1.1250 ca         1 9YA      -0.096500
      4 C22         -3.0380     2.9360    -1.2200 ca         1 9YA      -0.101000
      5 C23         -2.8310     1.9620    -2.2050 ca         1 9YA      -0.126000
      6 C13          2.6400    -3.5500    -0.8460 cx         1 9YA      -0.114700
      7 C18          0.4920     0.4400    -1.0480 cc         1 9YA       0.279500
      8 C15          3.2960    -4.8780    -1.1480 cx         1 9YA      -0.135900
      9 C14          1.7960    -4.7400    -1.2440 cx         1 9YA      -0.135900
     10 C05         -3.8490    -2.5450    -0.0690 ca         1 9YA      -0.275500
     11 C06         -2.5890    -2.5750     0.5620 ca         1 9YA      -0.008000
     12 C07         -1.4240    -2.3140    -0.1800 ca         1 9YA      -0.125500
     13 C08         -1.5020    -2.0140    -1.5540 ca         1 9YA      -0.013300
     14 C10          0.7560    -0.8310    -1.6320 cc         1 9YA      -0.210300
     15 C11          2.0600    -1.1350    -1.3310 cd         1 9YA      -0.100300
     16 C24         -1.6910     1.1440    -2.1660 ca         1 9YA      -0.092000
     17 C25         -2.2980     4.1800     0.8610 cp         1 9YA      -0.031000
     18 C26         -3.5950     4.4920     1.3450 ca         1 9YA      -0.106000
     19 C27         -3.7870     5.4800     2.3260 ca         1 9YA      -0.118500
     20 C28         -2.6850     6.1800     2.8430 ca         1 9YA      -0.130000
     21 C29         -1.3930     5.8900     2.3790 ca         1 9YA      -0.118500
     22 C30         -1.2010     4.9010     1.3990 ca         1 9YA      -0.106000
     23 C31          3.8410     0.0650    -0.0210 cc         1 9YA       0.473900
     24 C33          5.5020     1.1550     0.9970 cd         1 9YA       0.248500
     25 C34          5.9140    -0.1600     1.1670 cc         1 9YA      -0.220000
     26 C36          6.3590     2.3010     1.5260 c          1 9YA       0.630500
     27 C39         -2.7630    -1.9990    -2.1830 ca         1 9YA      -0.125500
     28 C40         -3.9320    -2.2580    -1.4470 ca         1 9YA      -0.008000
     29 N01         -5.6950    -1.3870     1.4580 n8         1 9YA      -1.001100
     30 N16          2.5350    -0.0400    -0.5650 na         1 9YA       0.148300
     31 N17          1.5460     0.9330    -0.4330 nd         1 9YA      -0.436800
     32 N32          4.2720     1.2710     0.3300 nd         1 9YA      -0.561000
     33 O03         -6.4490    -3.1700    -0.0160 o          1 9YA      -0.561000
     34 O04         -5.0290    -3.6760     2.0640 o          1 9YA      -0.561000
     35 O37          5.9750     3.4550     1.3690 o          1 9YA      -0.691500
     36 O38          7.4150     2.0460     2.0970 o          1 9YA      -0.691500
     37 S35          4.7700    -1.3070     0.5240 ss         1 9YA      -0.153400
     38 H1          -0.2370     2.4130     0.6430 ha         1 9YA       0.134000
     39 H2          -3.9200     3.5680    -1.2800 ha         1 9YA       0.108000
     40 H3          -3.5480     1.8510    -3.0150 ha         1 9YA       0.106000
     41 H4           3.9040    -2.1290    -1.8920 hc         1 9YA       0.056200
     42 H5           2.5310    -2.6330    -2.7990 hc         1 9YA       0.056200
     43 H6           2.6070    -3.2590     0.2020 hc         1 9YA       0.107700
     44 H7           3.8560    -4.9730    -2.0750 hc         1 9YA       0.068200
     45 H8           3.7010    -5.4430    -0.3120 hc         1 9YA       0.068200
     46 H9           1.1910    -5.2100    -0.4720 hc         1 9YA       0.068200
     47 H10          1.3580    -4.7610    -2.2390 hc         1 9YA       0.068200
     48 H11         -2.5060    -2.7980     1.6250 ha         1 9YA       0.132500
     49 H12         -0.4580    -2.3440     0.3180 ha         1 9YA       0.123000
     50 H13          0.2310    -2.6930    -2.5720 hc         1 9YA       0.049700
     51 H14         -0.4580    -1.3220    -3.3460 hc         1 9YA       0.049700
     52 H15         -1.5470     0.4520    -2.9820 ha         1 9YA       0.116000
     53 H16         -4.4600     3.9520     0.9660 ha         1 9YA       0.128000
     54 H17         -4.7900     5.7010     2.6860 ha         1 9YA       0.117500
     55 H18         -2.8330     6.9460     3.6020 ha         1 9YA       0.109000
     56 H19         -0.5380     6.4340     2.7760 ha         1 9YA       0.117500
     57 H20         -0.1930     4.7020     1.0430 ha         1 9YA       0.128000
     58 H21          6.8150    -0.5170     1.6490 h4         1 9YA       0.171000
     59 H22         -2.8400    -1.7820    -3.2460 ha         1 9YA       0.123000
     60 H23         -4.8950    -2.2360    -1.9540 ha         1 9YA       0.132500
     61 H24         -5.1690    -0.7820     0.8330 hn         1 9YA       0.476500
     62 H25         -6.6560    -1.2900     1.1390 hn         1 9YA       0.476500
     63 C09         -0.2340    -1.7280    -2.3540 c3         1 9YA       0.053200
     64 C12          2.8390    -2.3570    -1.7830 c3         1 9YA       0.015900
     65 S02         -5.3360    -2.8720     0.8810 sy         1 9YA       1.128600
@<TRIPOS>BOND
     1     1     2 ar  
     2     1     4 ar  
     3     1    17 1   
     4     2     3 ar  
     5     2    38 1   
     6     3     7 1   
     7     3    16 ar  
     8     4     5 ar  
     9     4    39 1   
    10     5    16 ar  
    11     5    40 1   
    12     6     8 1   
    13     6     9 1   
    14     6    43 1   
    15     6    64 1   
    16     7    14 1   
    17     7    31 2   
    18     8     9 1   
    19     8    44 1   
    20     8    45 1   
    21     9    46 1   
    22     9    47 1   
    23    10    11 ar  
    24    10    28 ar  
    25    10    65 1   
    26    11    12 ar  
    27    11    48 1   
    28    12    13 ar  
    29    12    49 1   
    30    13    27 ar  
    31    13    63 1   
    32    14    15 2   
    33    14    63 1   
    34    15    30 1   
    35    15    64 1   
    36    16    52 1   
    37    17    18 ar  
    38    17    22 ar  
    39    18    19 ar  
    40    18    53 1   
    41    19    20 ar  
    42    19    54 1   
    43    20    21 ar  
    44    20    55 1   
    45    21    22 ar  
    46    21    56 1   
    47    22    57 1   
    48    23    30 1   
    49    23    32 2   
    50    23    37 1   
    51    24    25 2   
    52    24    26 1   
    53    24    32 1   
    54    25    37 1   
    55    25    58 1   
    56    26    35 1   
    57    26    36 1   
    58    27    28 ar  
    59    27    59 1   
    60    28    60 1   
    61    29    61 1   
    62    29    62 1   
    63    29    65 1   
    64    30    31 1   
    65    33    65 2   
    66    34    65 2   
    67    41    64 1   
    68    42    64 1   
    69    50    63 1   
    70    51    63 1   
@<TRIPOS>SUBSTRUCTURE
     1 9YA         1 TEMP              0 ****  ****    0 ROOT
