@<TRIPOS>MOLECULE
9YB
   70    74     1     0     0
SMALL
abcg2


@<TRIPOS>ATOM
      1 C4          -6.5850    -0.0130    -1.5340 ca         1 9YB      -0.217000
      2 C5          -5.2450    -0.0790    -1.9670 ca         1 9YB      -0.079000
      3 C6          -5.8540     1.2410     0.4090 ca         1 9YB      -0.059000
      4 C11         -4.5110     1.1550    -0.0440 ca         1 9YB       0.009000
      5 C7          -6.1410     1.9250     1.6130 ca         1 9YB      -0.088000
      6 C8          -5.1390     2.5090     2.3420 ca         1 9YB      -0.122000
      7 C9          -3.8070     2.4300     1.8980 ca         1 9YB      -0.106000
      8 C10         -3.5020     1.7680     0.7390 ca         1 9YB      -0.087000
      9 C12         -4.2130     0.4790    -1.2650 ca         1 9YB      -0.096300
     10 C13         -2.8070     0.3930    -1.7910 c3         1 9YB       0.222100
     11 C3          -6.8910     0.6340    -0.3650 ca         1 9YB       0.149100
     12 C1          -9.2040     0.1570    -0.5620 c3         1 9YB       0.149900
     13 O2          -8.1310     0.7530     0.1390 os         1 9YB      -0.343100
     14 N14         -1.9180    -0.3580    -0.9240 n3         1 9YB      -0.734600
     15 C15         -0.5280    -0.1430    -1.2930 c6         1 9YB       0.253100
     16 C16          0.3450    -0.9730    -0.4170 cc         1 9YB      -0.148300
     17 C17         -2.2600    -1.7660    -0.8380 c6         1 9YB       0.176800
     18 C18         -1.5780    -2.4200     0.3620 c6         1 9YB      -0.002100
     19 C19         -0.1550    -2.0000     0.3430 cd         1 9YB      -0.164300
     20 N20          0.8810    -2.5140     1.0410 na         1 9YB       0.139800
     21 C21          0.8590    -3.6570     1.9250 c3         1 9YB       0.082600
     22 C22          1.1300    -4.9470     1.1650 c3         1 9YB       0.137600
     23 O23          1.0970    -5.9940     2.1030 oh         1 9YB      -0.666000
     24 N24          2.0210    -1.8990     0.7680 nd         1 9YB      -0.497800
     25 C25          1.7180    -0.9580    -0.1150 cc         1 9YB       0.223500
     26 C26          2.7370    -0.0320    -0.6480 c          1 9YB       0.525600
     27 O27          2.4520     0.7720    -1.5280 o          1 9YB      -0.631100
     28 N28          3.9580    -0.1350    -0.1050 ns         1 9YB      -0.452900
     29 C29          5.0530     0.7370    -0.4720 c3         1 9YB       0.169000
     30 C30          6.3550     0.1560     0.0640 c3         1 9YB      -0.227400
     31 C37          6.7690    -1.1890    -0.5710 c          1 9YB       0.717000
     32 O39          6.4350    -1.3830    -1.7550 o          1 9YB      -0.729500
     33 O38          7.4420    -1.9510     0.1500 o          1 9YB      -0.729500
     34 C31          4.8480     2.1490     0.0320 ca         1 9YB      -0.064300
     35 C32          4.2790     2.4040     1.2760 ca         1 9YB      -0.100000
     36 C33          4.1550     3.7050     1.7450 ca         1 9YB      -0.120500
     37 C34          4.6010     4.7720     0.9760 ca         1 9YB      -0.133000
     38 C35          5.1690     4.5280    -0.2680 ca         1 9YB      -0.120500
     39 C36          5.2890     3.2250    -0.7330 ca         1 9YB      -0.100000
     40 H1          -7.3500    -0.4810    -2.1380 ha         1 9YB       0.112000
     41 H2          -5.0340    -0.5990    -2.8940 ha         1 9YB       0.107000
     42 H3          -7.1610     1.9930     1.9640 ha         1 9YB       0.119000
     43 H4          -5.3730     3.0310     3.2610 ha         1 9YB       0.107000
     44 H5          -3.0190     2.8910     2.4790 ha         1 9YB       0.115000
     45 H6          -2.4720     1.6910     0.4250 ha         1 9YB       0.142000
     46 H7          -2.8370    -0.0230    -2.8120 h1         1 9YB       0.039200
     47 H8          -2.3930     1.4020    -1.8910 h1         1 9YB       0.039200
     48 H9          -9.3210     0.5800    -1.5630 h1         1 9YB       0.038033
     49 H10         -9.0790    -0.9250    -0.6490 h1         1 9YB       0.038033
     50 H11        -10.1020     0.3640     0.0140 h1         1 9YB       0.038033
     51 H13         -0.3400    -0.3860    -2.3530 h1         1 9YB       0.056700
     52 H14         -0.2930     0.9180    -1.1760 h1         1 9YB       0.056700
     53 H15         -3.3390    -1.8640    -0.7260 h1         1 9YB       0.033700
     54 H16         -1.9820    -2.3090    -1.7570 h1         1 9YB       0.033700
     55 H17         -2.0620    -2.1010     1.2900 hc         1 9YB       0.052700
     56 H18         -1.6850    -3.5050     0.2990 hc         1 9YB       0.052700
     57 H19          1.6120    -3.4990     2.6970 h1         1 9YB       0.074200
     58 H20         -0.1170    -3.6970     2.4110 h1         1 9YB       0.074200
     59 H21          0.3700    -5.0720     0.3830 h1         1 9YB       0.039200
     60 H22          2.1020    -4.8700     0.6640 h1         1 9YB       0.039200
     61 H23          1.2310    -6.8230     1.6350 ho         1 9YB       0.448000
     62 H24          4.0940    -0.8080     0.6340 hn         1 9YB       0.336500
     63 H25          5.1210     0.7640    -1.5620 h1         1 9YB       0.096700
     64 H26          7.1540     0.8780    -0.1350 hc         1 9YB       0.032200
     65 H27          6.3050     0.0630     1.1530 hc         1 9YB       0.032200
     66 H29          3.9200     1.5820     1.8850 ha         1 9YB       0.114000
     67 H30          3.7070     3.8860     2.7140 ha         1 9YB       0.096000
     68 H31          4.5010     5.7860     1.3410 ha         1 9YB       0.093000
     69 H32          5.5120     5.3530    -0.8790 ha         1 9YB       0.096000
     70 H33          5.7290     3.0410    -1.7070 ha         1 9YB       0.114000
@<TRIPOS>BOND
     1     1     2 ar  
     2     1    11 ar  
     3     1    40 1   
     4     2     9 ar  
     5     2    41 1   
     6     3     4 ar  
     7     3     5 ar  
     8     3    11 ar  
     9     4     8 ar  
    10     4     9 ar  
    11     5     6 ar  
    12     5    42 1   
    13     6     7 ar  
    14     6    43 1   
    15     7     8 ar  
    16     7    44 1   
    17     8    45 1   
    18     9    10 1   
    19    10    14 1   
    20    10    46 1   
    21    10    47 1   
    22    11    13 1   
    23    12    13 1   
    24    12    48 1   
    25    12    49 1   
    26    12    50 1   
    27    14    15 1   
    28    14    17 1   
    29    15    16 1   
    30    15    51 1   
    31    15    52 1   
    32    16    19 2   
    33    16    25 1   
    34    17    18 1   
    35    17    53 1   
    36    17    54 1   
    37    18    19 1   
    38    18    55 1   
    39    18    56 1   
    40    19    20 1   
    41    20    21 1   
    42    20    24 1   
    43    21    22 1   
    44    21    57 1   
    45    21    58 1   
    46    22    23 1   
    47    22    59 1   
    48    22    60 1   
    49    23    61 1   
    50    24    25 2   
    51    25    26 1   
    52    26    27 2   
    53    26    28 1   
    54    28    29 1   
    55    28    62 1   
    56    29    30 1   
    57    29    34 1   
    58    29    63 1   
    59    30    31 1   
    60    30    64 1   
    61    30    65 1   
    62    31    32 1   
    63    31    33 1   
    64    34    35 ar  
    65    34    39 ar  
    66    35    36 ar  
    67    35    66 1   
    68    36    37 ar  
    69    36    67 1   
    70    37    38 ar  
    71    37    68 1   
    72    38    39 ar  
    73    38    69 1   
    74    39    70 1   
@<TRIPOS>SUBSTRUCTURE
     1 9YB         1 TEMP              0 ****  ****    0 ROOT
