@<TRIPOS>MOLECULE
9YB
   70    74     1     0     0
SMALL
No Charge or Current Charge


@<TRIPOS>ATOM
      1 C4          -6.6530    -0.6730    -1.8280 ca         1 9YB      -0.217000
      2 C5          -5.2830    -0.6170    -2.1150 ca         1 9YB      -0.079000
      3 C6          -6.3760     1.0830    -0.1560 ca         1 9YB      -0.059000
      4 C11         -4.9860     1.1380    -0.4450 ca         1 9YB       0.009000
      5 C7          -6.9170     1.9420     0.8290 ca         1 9YB      -0.088000
      6 C8          -6.0960     2.8440     1.5220 ca         1 9YB      -0.122000
      7 C9          -4.7250     2.8990     1.2410 ca         1 9YB      -0.106000
      8 C10         -4.1720     2.0530     0.2660 ca         1 9YB      -0.087000
      9 C12         -4.4370     0.2800    -1.4350 ca         1 9YB      -0.096300
     10 C13         -2.9500     0.2920    -1.8040 c3         1 9YB       0.222100
     11 C3          -7.2110     0.1740    -0.8490 ca         1 9YB       0.149100
     12 C1          -9.4790    -0.7550    -1.2060 c3         1 9YB       0.149900
     13 O2          -8.5620     0.1380    -0.5490 os         1 9YB      -0.343100
     14 N14         -2.0650    -0.2570    -0.7490 n3         1 9YB      -0.734600
     15 C15         -0.6160    -0.0370    -1.0650 c6         1 9YB       0.253100
     16 C16          0.2540    -0.7200    -0.0350 cc         1 9YB      -0.148300
     17 C17         -2.3630    -1.6840    -0.3980 c6         1 9YB       0.176800
     18 C18         -1.6070    -2.1470     0.8810 c6         1 9YB      -0.002100
     19 C19         -0.1780    -1.6670     0.8280 cd         1 9YB      -0.164300
     20 N20          0.9430    -2.0210     1.5790 na         1 9YB       0.139800
     21 C21          0.9990    -3.0130     2.6630 c3         1 9YB       0.082600
     22 C22          1.2440    -4.4440     2.1450 c3         1 9YB       0.137600
     23 O23          1.2690    -5.3730     3.2410 oh         1 9YB      -0.666000
     24 N24          2.0790    -1.3210     1.1870 nd         1 9YB      -0.497800
     25 C25          1.6370    -0.5410     0.2000 cc         1 9YB       0.223500
     26 C26          2.4980     0.4170    -0.5840 c          1 9YB       0.525600
     27 O27          2.1140     1.1380    -1.5000 o          1 9YB      -0.631100
     28 N28          3.8140     0.4200    -0.1630 ns         1 9YB      -0.452900
     29 C29          4.8960     1.2110    -0.7480 c3         1 9YB       0.169000
     30 C30          5.8740     0.3280    -1.5570 c3         1 9YB      -0.227400
     31 C37          5.1710    -0.2610    -2.7850 c          1 9YB       0.717000
     32 O39          5.1510     0.4080    -3.8060 o          1 9YB      -0.729500
     33 O38          4.6700    -1.3710    -2.6910 o          1 9YB      -0.729500
     34 C31          5.6030     2.0130     0.3460 ca         1 9YB      -0.064300
     35 C32          6.3730     1.3690     1.3390 ca         1 9YB      -0.100000
     36 C33          7.0110     2.1190     2.3420 ca         1 9YB      -0.120500
     37 C34          6.8840     3.5170     2.3650 ca         1 9YB      -0.133000
     38 C35          6.1170     4.1650     1.3840 ca         1 9YB      -0.120500
     39 C36          5.4780     3.4170     0.3800 ca         1 9YB      -0.100000
     40 H1          -7.2650    -1.3820    -2.3780 ha         1 9YB       0.112000
     41 H2          -4.8720    -1.2810    -2.8730 ha         1 9YB       0.107000
     42 H3          -7.9780     1.9170     1.0660 ha         1 9YB       0.119000
     43 H4          -6.5230     3.4990     2.2780 ha         1 9YB       0.107000
     44 H5          -4.0860     3.5960     1.7800 ha         1 9YB       0.115000
     45 H6          -3.1050     2.1170     0.0780 ha         1 9YB       0.142000
     46 H7          -2.8060    -0.2750    -2.7340 h1         1 9YB       0.039200
     47 H8          -2.6640     1.3280    -2.0310 h1         1 9YB       0.039200
     48 H9          -9.5030    -0.5650    -2.2860 h1         1 9YB       0.038033
     49 H10         -9.1920    -1.8010    -1.0370 h1         1 9YB       0.038033
     50 H11        -10.4930    -0.6140    -0.8130 h1         1 9YB       0.038033
     51 H13         -0.3770    -0.4350    -2.0630 h1         1 9YB       0.056700
     52 H14         -0.4060     1.0420    -1.0880 h1         1 9YB       0.056700
     53 H15         -3.4390    -1.8330    -0.2280 h1         1 9YB       0.033700
     54 H16         -2.0780    -2.3370    -1.2360 h1         1 9YB       0.033700
     55 H17         -2.1060    -1.7320     1.7670 hc         1 9YB       0.052700
     56 H18         -1.6590    -3.2400     0.9700 hc         1 9YB       0.052700
     57 H19          1.8020    -2.7330     3.3540 h1         1 9YB       0.074200
     58 H20          0.0510    -2.9810     3.2120 h1         1 9YB       0.074200
     59 H21          0.4470    -4.7100     1.4370 h1         1 9YB       0.039200
     60 H22          2.1980    -4.4690     1.6000 h1         1 9YB       0.039200
     61 H23          1.4370    -6.2660     2.8610 ho         1 9YB       0.448000
     62 H24          4.0310    -0.2060     0.6030 hn         1 9YB       0.336500
     63 H25          4.4570     1.9320    -1.4530 h1         1 9YB       0.096700
     64 H26          6.6730     1.0070    -1.8780 hc         1 9YB       0.032200
     65 H27          6.2160    -0.4720    -0.8890 hc         1 9YB       0.032200
     66 H29          6.4760     0.2860     1.3380 ha         1 9YB       0.114000
     67 H30          7.6030     1.6150     3.1030 ha         1 9YB       0.096000
     68 H31          7.3780     4.0960     3.1410 ha         1 9YB       0.093000
     69 H32          6.0160     5.2480     1.4010 ha         1 9YB       0.096000
     70 H33          4.8840     3.9320    -0.3720 ha         1 9YB       0.114000
@<TRIPOS>BOND
     1     1     2 ar  
     2     1    11 ar  
     3     1    40 1   
     4     2     9 ar  
     5     2    41 1   
     6     3     4 ar  
     7     3     5 ar  
     8     3    11 ar  
     9     4     8 ar  
    10     4     9 ar  
    11     5     6 ar  
    12     5    42 1   
    13     6     7 ar  
    14     6    43 1   
    15     7     8 ar  
    16     7    44 1   
    17     8    45 1   
    18     9    10 1   
    19    10    14 1   
    20    10    46 1   
    21    10    47 1   
    22    11    13 1   
    23    12    13 1   
    24    12    48 1   
    25    12    49 1   
    26    12    50 1   
    27    14    15 1   
    28    14    17 1   
    29    15    16 1   
    30    15    51 1   
    31    15    52 1   
    32    16    19 2   
    33    16    25 1   
    34    17    18 1   
    35    17    53 1   
    36    17    54 1   
    37    18    19 1   
    38    18    55 1   
    39    18    56 1   
    40    19    20 1   
    41    20    21 1   
    42    20    24 1   
    43    21    22 1   
    44    21    57 1   
    45    21    58 1   
    46    22    23 1   
    47    22    59 1   
    48    22    60 1   
    49    23    61 1   
    50    24    25 2   
    51    25    26 1   
    52    26    27 2   
    53    26    28 1   
    54    28    29 1   
    55    28    62 1   
    56    29    30 1   
    57    29    34 1   
    58    29    63 1   
    59    30    31 1   
    60    30    64 1   
    61    30    65 1   
    62    31    32 1   
    63    31    33 1   
    64    34    35 ar  
    65    34    39 ar  
    66    35    36 ar  
    67    35    66 1   
    68    36    37 ar  
    69    36    67 1   
    70    37    38 ar  
    71    37    68 1   
    72    38    39 ar  
    73    38    69 1   
    74    39    70 1   
@<TRIPOS>SUBSTRUCTURE
     1 9YB         1 TEMP              0 ****  ****    0 ROOT
