@<TRIPOS>MOLECULE
9YD
   28    30     1     0     0
SMALL
No Charge or Current Charge


@<TRIPOS>ATOM
      1 C2          -5.2710     0.4730    -0.0220 ca         1 9YD       0.118000
      2 C3          -4.1960     1.3660     0.1310 ca         1 9YD       0.129000
      3 C4          -2.8760     0.8880     0.1300 ca         1 9YD      -0.098000
      4 C5          -2.6080    -0.4950    -0.0200 ca         1 9YD      -0.084500
      5 C6          -3.7010    -1.3790    -0.1810 ca         1 9YD      -0.098000
      6 C12          0.5450    -2.3930    -0.0540 cc         1 9YD       0.076100
      7 C13         -0.8120    -2.3650    -0.0450 cd         1 9YD      -0.313000
      8 C15          2.2460    -0.5790    -0.0540 cc         1 9YD       0.482900
      9 O21          3.8170     3.3630     0.0090 o          1 9YD      -0.693500
     10 F1          -6.5460     0.9260    -0.0220 f          1 9YD      -0.173000
     11 C7          -5.0230    -0.8980    -0.1790 ca         1 9YD      -0.141000
     12 F8          -4.4260     2.6910     0.2810 f          1 9YD      -0.164000
     13 C9          -1.2150    -0.9990    -0.0360 cd         1 9YD       0.296500
     14 N10         -0.1820    -0.1680    -0.0350 nc         1 9YD      -0.433800
     15 N11          0.9000    -1.0390    -0.0490 na         1 9YD       0.144300
     16 S16          3.6490    -1.6190    -0.1070 ss         1 9YD      -0.125400
     17 C17          4.6150    -0.1690    -0.0890 cc         1 9YD      -0.236000
     18 C18          3.8440     0.9860    -0.0480 cd         1 9YD       0.256500
     19 N19          2.4630     0.7330    -0.0290 nd         1 9YD      -0.570000
     20 C20          4.5160     2.3560    -0.0270 c          1 9YD       0.629500
     21 O22          5.7410     2.4250    -0.0470 o          1 9YD      -0.693500
     22 H1          -2.0640     1.6020     0.2490 ha         1 9YD       0.171000
     23 H2          -3.5360    -2.4450    -0.3130 ha         1 9YD       0.117000
     24 H3          -1.4630    -3.2300    -0.0380 ha         1 9YD       0.138000
     25 H6          -5.8540    -1.5880    -0.3020 ha         1 9YD       0.123000
     26 H7           5.6940    -0.2470    -0.1100 h4         1 9YD       0.168000
     27 H4           0.7830    -4.2640    -0.0510 ho         1 9YD       0.482000
     28 O14          1.3570    -3.4670    -0.0540 oh         1 9YD      -0.508100
@<TRIPOS>BOND
     1     1     2 ar  
     2     1    10 1   
     3     1    11 ar  
     4     2     3 ar  
     5     2    12 1   
     6     3     4 ar  
     7     3    22 1   
     8     4     5 ar  
     9     4    13 1   
    10     5    11 ar  
    11     5    23 1   
    12     6     7 2   
    13     6    15 1   
    14     6    28 1   
    15     7    13 1   
    16     7    24 1   
    17     8    15 1   
    18     8    16 1   
    19     8    19 2   
    20     9    20 1   
    21    11    25 1   
    22    13    14 2   
    23    14    15 1   
    24    16    17 1   
    25    17    18 2   
    26    17    26 1   
    27    18    19 1   
    28    18    20 1   
    29    20    21 1   
    30    27    28 1   
@<TRIPOS>SUBSTRUCTURE
     1 9YD         1 TEMP              0 ****  ****    0 ROOT
