@<TRIPOS>MOLECULE
9YD
   28    30     1     0     0
SMALL
bcc


@<TRIPOS>ATOM
      1 C2          -5.1440     0.5410     0.0020 ca         1 9YD       0.082900
      2 C3          -4.0420     1.3770     0.0940 ca         1 9YD       0.093900
      3 C4          -2.7660     0.8660     0.0740 ca         1 9YD      -0.116000
      4 C5          -2.5740    -0.5120    -0.0390 ca         1 9YD      -0.084500
      5 C6          -3.6870    -1.3440    -0.1310 ca         1 9YD      -0.116000
      6 C12          0.5090    -2.4130    -0.0910 cc         1 9YD       0.126800
      7 C13         -0.8570    -2.4370    -0.0930 cd         1 9YD      -0.396300
      8 C15          2.1830    -0.5860    -0.0490 cc         1 9YD       0.482900
      9 O21          3.4360     3.2630    -0.0200 o          1 9YD      -0.798800
     10 F1          -6.3700     1.0720     0.0250 f          1 9YD      -0.137900
     11 C7          -4.9710    -0.8210    -0.1120 ca         1 9YD      -0.159000
     12 F8          -4.2370     2.6950     0.2070 f          1 9YD      -0.128900
     13 C9          -1.2210    -1.0700    -0.0580 cd         1 9YD       0.361800
     14 N10         -0.1700    -0.2810    -0.0380 nc         1 9YD      -0.433800
     15 N11          0.8940    -1.1070    -0.0590 na         1 9YD       0.093600
     16 S16          3.5930    -1.5950    -0.0430 ss         1 9YD      -0.270300
     17 C17          4.5460    -0.1700    -0.0280 cc         1 9YD      -0.174400
     18 C18          3.7570     0.9360    -0.0300 cd         1 9YD       0.321800
     19 N19          2.4120     0.6790    -0.0410 nd         1 9YD      -0.570000
     20 C20          4.2850     2.3580    -0.0220 c          1 9YD       0.840100
     21 O22          5.5260     2.4690    -0.0180 o          1 9YD      -0.798800
     22 H1          -1.9230     1.5420     0.1490 ha         1 9YD       0.189000
     23 H2          -3.5670    -2.4150    -0.2220 ha         1 9YD       0.135000
     24 H3          -1.4910    -3.3080    -0.1100 ha         1 9YD       0.156000
     25 H6          -5.8340    -1.4690    -0.1850 ha         1 9YD       0.141000
     26 H7           5.6220    -0.2260    -0.0230 h4         1 9YD       0.186000
     27 H4           1.0460    -4.2290    -0.1370 ho         1 9YD       0.443000
     28 O14          1.4430    -3.3490    -0.1130 oh         1 9YD      -0.469100
@<TRIPOS>BOND
     1     1     2 ar  
     2     1    10 1   
     3     1    11 ar  
     4     2     3 ar  
     5     2    12 1   
     6     3     4 ar  
     7     3    22 1   
     8     4     5 ar  
     9     4    13 1   
    10     5    11 ar  
    11     5    23 1   
    12     6     7 2   
    13     6    15 1   
    14     6    28 1   
    15     7    13 1   
    16     7    24 1   
    17     8    15 1   
    18     8    16 1   
    19     8    19 2   
    20     9    20 1   
    21    11    25 1   
    22    13    14 2   
    23    14    15 1   
    24    16    17 1   
    25    17    18 2   
    26    17    26 1   
    27    18    19 1   
    28    18    20 1   
    29    20    21 1   
    30    27    28 1   
@<TRIPOS>SUBSTRUCTURE
     1 9YD         1 TEMP              0 ****  ****    0 ROOT
