@<TRIPOS>MOLECULE
9YE
   52    55     1     0     0
SMALL
bcc


@<TRIPOS>ATOM
      1 C1          -0.0220    -3.9880     0.1950 ca         1 9YE      -0.102000
      2 C10         -1.9010     1.3910     0.0470 cc         1 9YE      -0.075600
      3 C11         -2.7500     0.3050    -0.0800 cd         1 9YE      -0.174600
      4 C12         -2.3520     2.8080    -0.0610 c6         1 9YE      -0.010100
      5 C13         -3.6750     2.8520    -0.8230 c6         1 9YE      -0.066400
      6 C14         -4.6940     1.8650    -0.2640 c6         1 9YE      -0.179400
      7 C15         -4.1850     0.4420    -0.2610 c          1 9YE       0.603700
      8 C16          3.8470    -0.7280     0.5360 c3         1 9YE       0.186600
      9 C18          1.1230     2.2870    -0.8390 c3         1 9YE      -0.102600
     10 C19          0.3510     2.8720     1.5100 c3         1 9YE      -0.102600
     11 C2           1.3610    -4.1390     0.3180 ca         1 9YE      -0.097000
     12 C20          4.3800     0.6570     0.6940 c2         1 9YE      -0.198200
     13 C21          4.7740     1.4660    -0.2920 c2         1 9YE      -0.072400
     14 C22          4.7650     1.1130    -1.7480 c3         1 9YE      -0.065900
     15 C23          5.2600     2.8520     0.0080 c3         1 9YE      -0.065900
     16 C3           2.1840    -3.0340     0.4220 ca         1 9YE      -0.199000
     17 C4           1.6610    -1.7280     0.4190 ca         1 9YE       0.159100
     18 C5           0.2850    -1.5700     0.3120 ca         1 9YE      -0.038000
     19 C6          -0.5240    -2.7120     0.1910 ca         1 9YE      -0.137600
     20 C7          -0.6440    -0.4230     0.2320 cc         1 9YE      -0.033300
     21 C8          -1.9380    -0.8500     0.0360 cd         1 9YE      -0.198600
     22 C9          -1.9660    -2.3050     0.0200 c          1 9YE       0.622300
     23 N1          -0.6230     0.9390     0.2640 na         1 9YE       0.000900
     24 O1          -2.8920    -3.0740    -0.1060 o          1 9YE      -0.474100
     25 O2          -4.9260    -0.5180    -0.3680 o          1 9YE      -0.508100
     26 O3           2.4200    -0.6290     0.5060 os         1 9YE      -0.338900
     27 H1          -0.6740    -4.8460     0.0970 ha         1 9YE       0.156000
     28 H2          -2.4880     3.2390     0.9360 hc         1 9YE       0.052700
     29 H3          -1.6180     3.4300    -0.5740 hc         1 9YE       0.052700
     30 H4          -4.0810     3.8630    -0.7800 hc         1 9YE       0.048700
     31 H5          -3.4910     2.6280    -1.8770 hc         1 9YE       0.048700
     32 H6          -4.9270     2.1270     0.7760 hc         1 9YE       0.068200
     33 H7          -5.6330     1.9090    -0.8180 hc         1 9YE       0.068200
     34 H8           4.2020    -1.2140    -0.3770 h1         1 9YE       0.041700
     35 H9           4.1600    -1.3450     1.3840 h1         1 9YE       0.041700
     36 H10          1.3030     1.0970     0.9050 h1         1 9YE       0.093700
     37 H11          2.0700     2.7960    -0.6590 hc         1 9YE       0.047033
     38 H12          1.3160     1.4650    -1.5280 hc         1 9YE       0.047033
     39 H13          0.4470     2.9920    -1.3220 hc         1 9YE       0.047033
     40 H14         -0.1430     2.4910     2.4040 hc         1 9YE       0.047033
     41 H15          1.3280     3.2510     1.8110 hc         1 9YE       0.047033
     42 H16         -0.2180     3.7180     1.1310 hc         1 9YE       0.047033
     43 H17          1.8030    -5.1270     0.3240 ha         1 9YE       0.136000
     44 H18          4.4130     1.0320     1.7120 ha         1 9YE       0.129000
     45 H19          4.0960     1.7860    -2.2890 hc         1 9YE       0.045533
     46 H20          5.7590     1.2510    -2.1790 hc         1 9YE       0.045533
     47 H21          4.4440     0.0950    -1.9540 hc         1 9YE       0.045533
     48 H22          4.6480     3.5960    -0.5060 hc         1 9YE       0.045533
     49 H23          5.2400     3.0730     1.0750 hc         1 9YE       0.045533
     50 H24          6.2830     2.9920    -0.3490 hc         1 9YE       0.045533
     51 H25          3.2510    -3.1890     0.5010 ha         1 9YE       0.134000
     52 C17          0.5710     1.7720     0.4810 c3         1 9YE       0.044000
@<TRIPOS>BOND
     1     1    11 ar  
     2     1    19 ar  
     3     1    27 1   
     4     2     3 2   
     5     2     4 1   
     6     2    23 1   
     7     3     7 1   
     8     3    21 1   
     9     4     5 1   
    10     4    28 1   
    11     4    29 1   
    12     5     6 1   
    13     5    30 1   
    14     5    31 1   
    15     6     7 1   
    16     6    32 1   
    17     6    33 1   
    18     7    25 2   
    19     8    12 1   
    20     8    26 1   
    21     8    34 1   
    22     8    35 1   
    23     9    37 1   
    24     9    38 1   
    25     9    39 1   
    26     9    52 1   
    27    10    40 1   
    28    10    41 1   
    29    10    42 1   
    30    10    52 1   
    31    11    16 ar  
    32    11    43 1   
    33    12    13 2   
    34    12    44 1   
    35    13    14 1   
    36    13    15 1   
    37    14    45 1   
    38    14    46 1   
    39    14    47 1   
    40    15    48 1   
    41    15    49 1   
    42    15    50 1   
    43    16    17 ar  
    44    16    51 1   
    45    17    18 ar  
    46    17    26 1   
    47    18    19 ar  
    48    18    20 1   
    49    19    22 1   
    50    20    21 2   
    51    20    23 1   
    52    21    22 1   
    53    22    24 2   
    54    23    52 1   
    55    36    52 1   
@<TRIPOS>SUBSTRUCTURE
     1 9YE         1 TEMP              0 ****  ****    0 ROOT
