@<TRIPOS>MOLECULE
9YE
   52    55     1     0     0
SMALL
No Charge or Current Charge


@<TRIPOS>ATOM
      1 C1          -0.0310    -4.0310     0.1640 ca         1 9YE      -0.084000
      2 C10         -1.9070     1.4210     0.0440 cc         1 9YE      -0.126300
      3 C11         -2.7100     0.3030    -0.1080 cd         1 9YE      -0.174600
      4 C12         -2.4210     2.8390    -0.0830 c6         1 9YE      -0.010100
      5 C13         -3.7430     2.8660    -0.8920 c6         1 9YE      -0.066400
      6 C14         -4.7510     1.8120    -0.3650 c6         1 9YE      -0.179400
      7 C15         -4.1760     0.3860    -0.3680 c          1 9YE       0.603700
      8 C16          3.9120    -0.7360     0.6430 c3         1 9YE       0.209800
      9 C18          1.2910     2.3760    -0.5860 c3         1 9YE      -0.102600
     10 C19          0.2870     2.9190     1.7100 c3         1 9YE      -0.102600
     11 C2           1.3570    -4.1930     0.3220 ca         1 9YE      -0.079000
     12 C20          4.4630     0.6740     0.6700 c2         1 9YE      -0.248200
     13 C21          4.7650     1.4520    -0.3860 c2         1 9YE      -0.072400
     14 C22          4.5880     1.0530    -1.8430 c3         1 9YE      -0.065900
     15 C23          5.3310     2.8510    -0.2330 c3         1 9YE      -0.065900
     16 C3           2.2040    -3.0670     0.4310 ca         1 9YE      -0.181000
     17 C4           1.6770    -1.7490     0.3960 ca         1 9YE       0.159100
     18 C5           0.2770    -1.5990     0.2710 ca         1 9YE      -0.038000
     19 C6          -0.5460    -2.7280     0.1360 ca         1 9YE      -0.138600
     20 C7          -0.5990    -0.4210     0.1970 cc         1 9YE      -0.084000
     21 C8          -1.8710    -0.8250    -0.0040 cd         1 9YE      -0.198600
     22 C9          -1.9660    -2.2960    -0.0560 c          1 9YE       0.622300
     23 N1          -0.5840     0.9750     0.3090 na         1 9YE       0.073000
     24 O1          -2.9500    -3.0060    -0.2160 o          1 9YE      -0.474100
     25 O2          -4.8810    -0.5880    -0.5990 o          1 9YE      -0.508100
     26 O3           2.4940    -0.6410     0.4490 os         1 9YE      -0.362100
     27 H1          -0.6860    -4.8940     0.0600 ha         1 9YE       0.138000
     28 H2          -2.5980     3.2680     0.9130 hc         1 9YE       0.052700
     29 H3          -1.6870     3.4880    -0.5790 hc         1 9YE       0.052700
     30 H4          -4.1870     3.8700    -0.8460 hc         1 9YE       0.048700
     31 H5          -3.5280     2.6680    -1.9510 hc         1 9YE       0.048700
     32 H6          -4.9420     2.0580     0.6880 hc         1 9YE       0.068200
     33 H7          -5.7140     1.8320    -0.8920 hc         1 9YE       0.068200
     34 H8           4.3830    -1.3120    -0.1650 h1         1 9YE       0.041700
     35 H9           4.1370    -1.2360     1.5940 h1         1 9YE       0.041700
     36 H10          1.2850     1.1580     1.1790 h1         1 9YE       0.093700
     37 H11          2.1940     2.9290    -0.3040 hc         1 9YE       0.047033
     38 H12          1.5850     1.5590    -1.2550 hc         1 9YE       0.047033
     39 H13          0.6320     3.0540    -1.1420 hc         1 9YE       0.047033
     40 H14         -0.3070     2.5170     2.5410 hc         1 9YE       0.047033
     41 H15          1.2260     3.3060     2.1240 hc         1 9YE       0.047033
     42 H16         -0.2490     3.7670     1.2720 hc         1 9YE       0.047033
     43 H17          1.7830    -5.1940     0.3460 ha         1 9YE       0.118000
     44 H18          4.6210     1.0460     1.6820 ha         1 9YE       0.179000
     45 H19          3.9520     1.7720    -2.3720 hc         1 9YE       0.045533
     46 H20          5.5540     1.0230    -2.3610 hc         1 9YE       0.045533
     47 H21          4.1240     0.0680    -1.9580 hc         1 9YE       0.045533
     48 H22          4.6760     3.5970    -0.6980 hc         1 9YE       0.045533
     49 H23          5.4480     3.1300     0.8220 hc         1 9YE       0.045533
     50 H24          6.3180     2.9310    -0.7050 hc         1 9YE       0.045533
     51 H25          3.2710    -3.2410     0.5300 ha         1 9YE       0.116000
     52 C17          0.5830     1.8170     0.6660 c3         1 9YE       0.073300
@<TRIPOS>BOND
     1     1    11 ar  
     2     1    19 ar  
     3     1    27 1   
     4     2     3 2   
     5     2     4 1   
     6     2    23 1   
     7     3     7 1   
     8     3    21 1   
     9     4     5 1   
    10     4    28 1   
    11     4    29 1   
    12     5     6 1   
    13     5    30 1   
    14     5    31 1   
    15     6     7 1   
    16     6    32 1   
    17     6    33 1   
    18     7    25 2   
    19     8    12 1   
    20     8    26 1   
    21     8    34 1   
    22     8    35 1   
    23     9    37 1   
    24     9    38 1   
    25     9    39 1   
    26     9    52 1   
    27    10    40 1   
    28    10    41 1   
    29    10    42 1   
    30    10    52 1   
    31    11    16 ar  
    32    11    43 1   
    33    12    13 2   
    34    12    44 1   
    35    13    14 1   
    36    13    15 1   
    37    14    45 1   
    38    14    46 1   
    39    14    47 1   
    40    15    48 1   
    41    15    49 1   
    42    15    50 1   
    43    16    17 ar  
    44    16    51 1   
    45    17    18 ar  
    46    17    26 1   
    47    18    19 ar  
    48    18    20 1   
    49    19    22 1   
    50    20    21 2   
    51    20    23 1   
    52    21    22 1   
    53    22    24 2   
    54    23    52 1   
    55    36    52 1   
@<TRIPOS>SUBSTRUCTURE
     1 9YE         1 TEMP              0 ****  ****    0 ROOT
