@<TRIPOS>MOLECULE
9YG
   44    47     1     0     0
SMALL
bcc


@<TRIPOS>ATOM
      1 C4          -1.1000     2.1390     0.4800 ca         1 9YG       0.782200
      2 C5          -1.1170     0.8770    -0.1550 ca         1 9YG      -0.511500
      3 C6          -2.0980    -0.0170     0.2860 ca         1 9YG       0.486800
      4 N1          -3.0050     0.2360     1.2390 nb         1 9YG      -0.762000
      5 N3          -2.0100     2.3980     1.4210 nb         1 9YG      -0.840000
      6 CAA         -2.1820    -3.4140    -1.3280 c3         1 9YG      -0.100433
      7 CAC         -4.1830    -2.1320    -0.5830 c3         1 9YG      -0.100433
      8 CAD         -2.5030    -2.9650     1.1030 c3         1 9YG      -0.100433
      9 NAE         -1.9470    -1.1490    -0.4320 na         1 9YG       0.006200
     10 NAX         -0.9310    -1.0230    -1.3040 nc         1 9YG      -0.534100
     11 C2          -2.8910     1.4490     1.7360 ca         1 9YG       0.717900
     12 NAK         -0.2270     3.1010     0.1670 nv         1 9YG      -0.951500
     13 CAM         -0.4160     0.1720    -1.1690 cd         1 9YG       0.392900
     14 CAN          0.7460     0.5990    -2.0080 c3         1 9YG      -0.014500
     15 CAO          1.9670     0.9150    -1.2010 cc         1 9YG      -0.140400
     16 CAS          2.5730     0.0950    -0.1920 ca         1 9YG      -0.092800
     17 CAT          2.2810    -1.1670     0.3420 ca         1 9YG      -0.067000
     18 CAU          3.0980    -1.6780     1.3300 ca         1 9YG      -0.161000
     19 CAV          4.2070    -0.9540     1.8020 ca         1 9YG      -0.104000
     20 CAW          4.5230     0.2890     1.2920 ca         1 9YG      -0.151000
     21 CAR          3.6980     0.8010     0.2900 ca         1 9YG      -0.047200
     22 NAQ          3.7680     1.9780    -0.3960 na         1 9YG      -0.172400
     23 CAP          2.7340     2.0450    -1.2850 cd         1 9YG      -0.133100
     24 H1          -1.1350    -3.6660    -1.1580 hc         1 9YG       0.049589
     25 H2          -2.7680    -4.3300    -1.2340 hc         1 9YG       0.049589
     26 H3          -2.2880    -3.0540    -2.3500 hc         1 9YG       0.049589
     27 H4          -4.7510    -3.0590    -0.5010 hc         1 9YG       0.049589
     28 H5          -4.6010    -1.4180     0.1250 hc         1 9YG       0.049589
     29 H6          -4.3230    -1.7420    -1.5920 hc         1 9YG       0.049589
     30 H7          -1.4460    -3.1530     1.2940 hc         1 9YG       0.049589
     31 H8          -2.8770    -2.2810     1.8640 hc         1 9YG       0.049589
     32 H9          -3.0380    -3.9090     1.2090 hc         1 9YG       0.049589
     33 H10         -3.6040     1.7170     2.5090 h5         1 9YG       0.042100
     34 H11         -0.2030     3.9320     0.7350 hn         1 9YG       0.440800
     35 H12          0.5990     2.8880    -0.3670 hn         1 9YG       0.440800
     36 H13          0.9500    -0.2060    -2.7190 hc         1 9YG       0.063200
     37 H14          0.4720     1.4730    -2.6050 hc         1 9YG       0.063200
     38 H15          1.4320    -1.7340    -0.0170 ha         1 9YG       0.145000
     39 H16          2.8840    -2.6520     1.7510 ha         1 9YG       0.130000
     40 H17          4.8260    -1.3820     2.5800 ha         1 9YG       0.128000
     41 H18          5.3790     0.8430     1.6550 ha         1 9YG       0.131000
     42 H19          4.4590     2.6960    -0.2620 hn         1 9YG       0.300700
     43 H20          2.6200     2.9010    -1.9330 h4         1 9YG       0.161000
     44 CAB         -2.7050    -2.4090    -0.3080 c3         1 9YG       0.105700
@<TRIPOS>BOND
     1     1     2 ar  
     2     1     5 ar  
     3     1    12 1   
     4     2     3 ar  
     5     2    13 1   
     6     3     4 ar  
     7     3     9 1   
     8     4    11 ar  
     9     5    11 ar  
    10     6    24 1   
    11     6    25 1   
    12     6    26 1   
    13     6    44 1   
    14     7    27 1   
    15     7    28 1   
    16     7    29 1   
    17     7    44 1   
    18     8    30 1   
    19     8    31 1   
    20     8    32 1   
    21     8    44 1   
    22     9    10 1   
    23     9    44 1   
    24    10    13 2   
    25    11    33 1   
    26    12    34 1   
    27    12    35 1   
    28    13    14 1   
    29    14    15 1   
    30    14    36 1   
    31    14    37 1   
    32    15    16 1   
    33    15    23 2   
    34    16    17 ar  
    35    16    21 ar  
    36    17    18 ar  
    37    17    38 1   
    38    18    19 ar  
    39    18    39 1   
    40    19    20 ar  
    41    19    40 1   
    42    20    21 ar  
    43    20    41 1   
    44    21    22 1   
    45    22    23 1   
    46    22    42 1   
    47    23    43 1   
@<TRIPOS>SUBSTRUCTURE
     1 9YG         1 TEMP              0 ****  ****    0 ROOT
