@<TRIPOS>MOLECULE
9YG
   44    47     1     0     0
SMALL
No Charge or Current Charge


@<TRIPOS>ATOM
      1 C4          -0.8440     1.9000     0.5630 ca         1 9YG       0.453900
      2 C5          -1.0330     0.6840    -0.0840 ca         1 9YG      -0.380900
      3 C6          -2.0220    -0.1610     0.3310 ca         1 9YG       0.158500
      4 N1          -2.8270     0.1690     1.3640 nb         1 9YG      -0.236000
      5 N3          -1.6250     2.2570     1.5900 nb         1 9YG      -0.314000
      6 CAA         -2.4960    -3.5350    -1.4900 c3         1 9YG      -0.100433
      7 CAC         -4.3330    -2.0630    -0.6140 c3         1 9YG      -0.100433
      8 CAD         -2.6860    -3.1510     0.9840 c3         1 9YG      -0.100433
      9 NAE         -1.9590    -1.2750    -0.5050 na         1 9YG      -0.023100
     10 NAX         -0.9390    -1.1410    -1.4600 nc         1 9YG      -0.534100
     11 C2          -2.5850     1.3690     1.9430 ca         1 9YG       0.191900
     12 NAK          0.1190     2.7810     0.2300 nv         1 9YG      -1.061900
     13 CAM         -0.3760     0.0460    -1.1990 cd         1 9YG       0.392900
     14 CAN          0.7770     0.5400    -2.0460 c3         1 9YG      -0.014500
     15 CAO          2.0080     0.9560    -1.2780 cc         1 9YG      -0.140400
     16 CAS          2.6110     0.2800    -0.1620 ca         1 9YG      -0.092800
     17 CAT          2.2730    -0.9270     0.4700 ca         1 9YG      -0.049000
     18 CAU          3.0590    -1.3450     1.5650 ca         1 9YG      -0.143000
     19 CAV          4.1550    -0.5620     1.9980 ca         1 9YG      -0.086000
     20 CAW          4.4720     0.6430     1.3370 ca         1 9YG      -0.133000
     21 CAR          3.6730     1.0340     0.2530 ca         1 9YG      -0.047200
     22 NAQ          3.8120     2.1620    -0.5320 na         1 9YG      -0.222700
     23 CAP          2.7710     2.1010    -1.4890 cd         1 9YG      -0.183100
     24 H1          -1.4620    -3.8810    -1.3800 hc         1 9YG       0.049589
     25 H2          -3.1510    -4.4120    -1.4140 hc         1 9YG       0.049589
     26 H3          -2.6130    -3.1200    -2.4990 hc         1 9YG       0.049589
     27 H4          -4.9900    -2.9410    -0.6070 hc         1 9YG       0.049589
     28 H5          -4.6800    -1.3870     0.1740 hc         1 9YG       0.049589
     29 H6          -4.4600    -1.5540    -1.5770 hc         1 9YG       0.049589
     30 H7          -1.6380    -3.4180     1.1620 hc         1 9YG       0.049589
     31 H8          -3.0100    -2.4900     1.7960 hc         1 9YG       0.049589
     32 H9          -3.2850    -4.0670     1.0480 hc         1 9YG       0.049589
     33 H10         -3.2280     1.6470     2.7760 h5         1 9YG       0.042100
     34 H11          0.2980     3.5290     0.8930 hn         1 9YG       0.496000
     35 H12          0.9440     2.4030    -0.2320 hn         1 9YG       0.496000
     36 H13          1.0630    -0.2360    -2.7660 hc         1 9YG       0.063200
     37 H14          0.4240     1.3830    -2.6500 hc         1 9YG       0.063200
     38 H15          1.4340    -1.5300     0.1310 ha         1 9YG       0.127000
     39 H16          2.8220    -2.2750     2.0760 ha         1 9YG       0.112000
     40 H17          4.7560    -0.8920     2.8420 ha         1 9YG       0.110000
     41 H18          5.3150     1.2490     1.6590 ha         1 9YG       0.113000
     42 H19          4.5250     2.8820    -0.4450 hn         1 9YG       0.351000
     43 H20          2.6470     2.8760    -2.2430 h4         1 9YG       0.211000
     44 CAB         -2.8520    -2.4770    -0.4050 c3         1 9YG       0.135000
@<TRIPOS>BOND
     1     1     2 ar  
     2     1     5 ar  
     3     1    12 1   
     4     2     3 ar  
     5     2    13 1   
     6     3     4 ar  
     7     3     9 1   
     8     4    11 ar  
     9     5    11 ar  
    10     6    24 1   
    11     6    25 1   
    12     6    26 1   
    13     6    44 1   
    14     7    27 1   
    15     7    28 1   
    16     7    29 1   
    17     7    44 1   
    18     8    30 1   
    19     8    31 1   
    20     8    32 1   
    21     8    44 1   
    22     9    10 1   
    23     9    44 1   
    24    10    13 2   
    25    11    33 1   
    26    12    34 1   
    27    12    35 1   
    28    13    14 1   
    29    14    15 1   
    30    14    36 1   
    31    14    37 1   
    32    15    16 1   
    33    15    23 2   
    34    16    17 ar  
    35    16    21 ar  
    36    17    18 ar  
    37    17    38 1   
    38    18    19 ar  
    39    18    39 1   
    40    19    20 ar  
    41    19    40 1   
    42    20    21 ar  
    43    20    41 1   
    44    21    22 1   
    45    22    23 1   
    46    22    42 1   
    47    23    43 1   
@<TRIPOS>SUBSTRUCTURE
     1 9YG         1 TEMP              0 ****  ****    0 ROOT
