@<TRIPOS>MOLECULE
9YH
   57    58     1     0     0
SMALL
abcg2


@<TRIPOS>ATOM
      1 CBC          7.2200     2.6530    -1.0000 c3         1 9YH       0.166900
      2 OAX          6.2270     1.7220    -1.3760 os         1 9YH      -0.374100
      3 CAR          5.1220     1.6100    -0.6010 ca         1 9YH       0.017100
      4 CAS          4.2140     0.6240    -1.0200 ca         1 9YH       0.106100
      5 OAY          4.4650    -0.1140    -2.1260 oh         1 9YH      -0.524100
      6 CAQ          4.8510     2.3720     0.5240 ca         1 9YH      -0.177000
      7 CAE          3.6700     2.1520     1.2280 ca         1 9YH      -0.133000
      8 CAF          2.7800     1.1780     0.8140 ca         1 9YH      -0.078000
      9 CAG          3.0390     0.3970    -0.3110 ca         1 9YH      -0.052300
     10 CAH          2.0610    -0.6650    -0.7780 c3         1 9YH       0.259100
     11 N            1.1440    -1.0600     0.2610 n3         1 9YH      -0.789600
     12 CA           1.6850    -2.0250     1.1850 c3         1 9YH       0.048800
     13 C            1.9060    -3.4730     0.6950 c          1 9YH       0.696000
     14 OXT          2.3360    -4.2530     1.5700 o          1 9YH      -0.745000
     15 O            1.6510    -3.7560    -0.4920 o          1 9YH      -0.745000
     16 CAJ         -0.2440    -1.2570    -0.0930 c3         1 9YH       0.210800
     17 CAK         -1.1700    -0.7180     0.9950 c3         1 9YH       0.157800
     18 NAL         -2.5680    -0.9670     0.6840 n3         1 9YH      -0.690600
     19 CAT         -2.9570    -2.3160     1.0370 c3         1 9YH       0.018800
     20 CAZ         -4.2670    -2.8520     0.4250 c          1 9YH       0.718000
     21 OBD         -4.6780    -3.9130     0.9440 o          1 9YH      -0.741000
     22 OBA         -4.7820    -2.2410    -0.5250 o          1 9YH      -0.741000
     23 CAM         -3.4690    -0.0090     1.2960 c3         1 9YH       0.211100
     24 CAN         -3.1510     1.4210     0.9530 ca         1 9YH      -0.042300
     25 CAO         -2.9300     2.3340     1.9770 ca         1 9YH      -0.110000
     26 CAP         -2.6550     3.6710     1.7240 ca         1 9YH      -0.143000
     27 CAW         -2.5870     4.1060     0.4110 ca         1 9YH      -0.121000
     28 CAV         -2.7950     3.2110    -0.6300 ca         1 9YH      -0.144000
     29 CAU         -3.0830     1.8710    -0.3760 ca         1 9YH      -0.090000
     30 SBB         -3.3760     0.7080    -1.6750 ss         1 9YH       0.041000
     31 CBE         -3.6520     1.7910    -3.0960 c3         1 9YH      -0.044100
     32 H1           6.8400     3.6780    -1.0090 h1         1 9YH       0.026700
     33 H2           7.6250     2.4370    -0.0080 h1         1 9YH       0.026700
     34 H3           8.0180     2.5690    -1.7320 h1         1 9YH       0.026700
     35 H4           5.3370     0.1080    -2.4770 ho         1 9YH       0.458000
     36 H5           5.5420     3.1330     0.8620 ha         1 9YH       0.091000
     37 H6           3.4570     2.7480     2.1060 ha         1 9YH       0.097000
     38 H7           1.8640     0.9970     1.3610 ha         1 9YH       0.151000
     39 H8           1.4890    -0.2540    -1.6160 h1         1 9YH       0.057700
     40 H9           2.6110    -1.5170    -1.1930 h1         1 9YH       0.057700
     41 H11          2.6440    -1.6500     1.5630 h1         1 9YH       0.024200
     42 H12          1.0410    -2.0730     2.0700 h1         1 9YH       0.024200
     43 H14         -0.4700    -0.7010    -1.0050 h1         1 9YH       0.051200
     44 H15         -0.4680    -2.3080    -0.3150 h1         1 9YH       0.051200
     45 H16         -0.8960    -1.1280     1.9820 h1         1 9YH       0.015200
     46 H17         -0.9970     0.3570     1.0580 h1         1 9YH       0.015200
     47 H19         -2.1660    -3.0010     0.7150 h1         1 9YH       0.028700
     48 H20         -3.0140    -2.4380     2.1340 h1         1 9YH       0.028700
     49 H22         -4.4790    -0.2400     0.9500 h1         1 9YH       0.046200
     50 H23         -3.4830    -0.1050     2.3970 h1         1 9YH       0.046200
     51 H24         -2.9770     1.9830     3.0020 ha         1 9YH       0.103000
     52 H25         -2.4940     4.3600     2.5430 ha         1 9YH       0.089000
     53 H26         -2.3680     5.1410     0.1850 ha         1 9YH       0.085000
     54 H27         -2.7290     3.5780    -1.6450 ha         1 9YH       0.097000
     55 H28         -4.4370     2.5230    -2.9070 h1         1 9YH       0.045700
     56 H29         -2.7470     2.3040    -3.4170 h1         1 9YH       0.045700
     57 H30         -3.9760     1.1380    -3.9050 h1         1 9YH       0.045700
@<TRIPOS>BOND
     1     1     2 1   
     2     1    32 1   
     3     1    33 1   
     4     1    34 1   
     5     2     3 1   
     6     3     4 ar  
     7     3     6 ar  
     8     4     5 1   
     9     4     9 ar  
    10     5    35 1   
    11     6     7 ar  
    12     6    36 1   
    13     7     8 ar  
    14     7    37 1   
    15     8     9 ar  
    16     8    38 1   
    17     9    10 1   
    18    10    11 1   
    19    10    39 1   
    20    10    40 1   
    21    11    12 1   
    22    11    16 1   
    23    12    13 1   
    24    12    41 1   
    25    12    42 1   
    26    13    14 1   
    27    13    15 1   
    28    16    17 1   
    29    16    43 1   
    30    16    44 1   
    31    17    18 1   
    32    17    45 1   
    33    17    46 1   
    34    18    19 1   
    35    18    23 1   
    36    19    20 1   
    37    19    47 1   
    38    19    48 1   
    39    20    21 1   
    40    20    22 1   
    41    23    24 1   
    42    23    49 1   
    43    23    50 1   
    44    24    25 ar  
    45    24    29 ar  
    46    25    26 ar  
    47    25    51 1   
    48    26    27 ar  
    49    26    52 1   
    50    27    28 ar  
    51    27    53 1   
    52    28    29 ar  
    53    28    54 1   
    54    29    30 1   
    55    30    31 1   
    56    31    55 1   
    57    31    56 1   
    58    31    57 1   
@<TRIPOS>SUBSTRUCTURE
     1 9YH         1 TEMP              0 ****  ****    0 ROOT
