@<TRIPOS>MOLECULE
9YH
   57    58     1     0     0
SMALL
No Charge or Current Charge


@<TRIPOS>ATOM
      1 CBC          8.3230     1.4430    -1.2060 c3         1 9YH       0.166900
      2 OAX          7.1370     0.6360    -1.3310 os         1 9YH      -0.374100
      3 CAR          5.8990     1.0650    -0.8810 ca         1 9YH       0.017100
      4 CAS          4.7950     0.2020    -1.0500 ca         1 9YH       0.106100
      5 OAY          5.0060    -1.0010    -1.6660 oh         1 9YH      -0.524100
      6 CAQ          5.7150     2.3260    -0.2740 ca         1 9YH      -0.177000
      7 CAE          4.4350     2.7160     0.1500 ca         1 9YH      -0.133000
      8 CAF          3.3390     1.8550    -0.0210 ca         1 9YH      -0.078000
      9 CAG          3.5060     0.5830    -0.6100 ca         1 9YH      -0.052300
     10 CAH          2.3000    -0.3460    -0.8070 c3         1 9YH       0.259100
     11 N            1.2400    -0.2350     0.2390 n3         1 9YH      -0.789600
     12 CA           1.7150    -0.6700     1.6070 c3         1 9YH       0.048800
     13 C            2.0890    -2.1820     1.8510 c          1 9YH       0.696000
     14 OXT          1.2070    -2.9560     2.2020 o          1 9YH      -0.745000
     15 O            3.2550    -2.5290     1.7080 o          1 9YH      -0.745000
     16 CAJ         -0.0380    -0.8850    -0.1850 c3         1 9YH       0.210800
     17 CAK         -1.2720    -0.6140     0.7330 c3         1 9YH       0.157800
     18 NAL         -2.5960    -1.0510     0.1950 n3         1 9YH      -0.690600
     19 CAT         -2.6630    -2.5290    -0.0910 c3         1 9YH       0.018800
     20 CAZ         -3.9700    -3.1210    -0.7330 c          1 9YH       0.718000
     21 OBD         -4.8090    -3.6210     0.0060 o          1 9YH      -0.741000
     22 OBA         -4.0920    -3.0880    -1.9520 o          1 9YH      -0.741000
     23 CAM         -3.7380    -0.5890     1.0350 c3         1 9YH       0.211100
     24 CAN         -3.8240     0.9310     1.2260 ca         1 9YH      -0.042300
     25 CAO         -3.4420     1.4830     2.4680 ca         1 9YH      -0.110000
     26 CAP         -3.5100     2.8670     2.6880 ca         1 9YH      -0.143000
     27 CAW         -3.9660     3.7150     1.6700 ca         1 9YH      -0.121000
     28 CAV         -4.3510     3.1810     0.4300 ca         1 9YH      -0.144000
     29 CAU         -4.2810     1.7900     0.1940 ca         1 9YH      -0.090000
     30 SBB         -4.7800     1.0940    -1.3950 ss         1 9YH       0.041000
     31 CBE         -4.6840     2.4890    -2.5970 c3         1 9YH      -0.044100
     32 H1           8.2090     2.3900    -1.7480 h1         1 9YH       0.026700
     33 H2           8.5350     1.6630    -0.1520 h1         1 9YH       0.026700
     34 H3           9.1890     0.9140    -1.6240 h1         1 9YH       0.026700
     35 H4           5.9660    -1.0360    -1.8720 ho         1 9YH       0.458000
     36 H5           6.5440     3.0140    -0.1290 ha         1 9YH       0.091000
     37 H6           4.2900     3.6910     0.6110 ha         1 9YH       0.097000
     38 H7           2.3520     2.1760     0.3080 ha         1 9YH       0.151000
     39 H8           1.8740    -0.1030    -1.7910 h1         1 9YH       0.057700
     40 H9           2.6430    -1.3870    -0.8690 h1         1 9YH       0.057700
     41 H11          2.6000    -0.0820     1.8850 h1         1 9YH       0.024200
     42 H12          0.9530    -0.4100     2.3530 h1         1 9YH       0.024200
     43 H14         -0.3070    -0.5280    -1.1890 h1         1 9YH       0.051200
     44 H15          0.1090    -1.9710    -0.2660 h1         1 9YH       0.051200
     45 H16         -1.1020    -1.0930     1.7060 h1         1 9YH       0.015200
     46 H17         -1.2940     0.4690     0.9110 h1         1 9YH       0.015200
     47 H19         -1.8490    -2.8090    -0.7700 h1         1 9YH       0.028700
     48 H20         -2.4890    -3.0830     0.8420 h1         1 9YH       0.028700
     49 H22         -4.6890    -0.9200     0.5960 h1         1 9YH       0.046200
     50 H23         -3.6800    -1.0650     2.0230 h1         1 9YH       0.046200
     51 H24         -3.0870     0.8330     3.2650 ha         1 9YH       0.103000
     52 H25         -3.2110     3.2810     3.6480 ha         1 9YH       0.089000
     53 H26         -4.0240     4.7870     1.8410 ha         1 9YH       0.085000
     54 H27         -4.7110     3.8610    -0.3360 ha         1 9YH       0.097000
     55 H28         -5.4510     3.2370    -2.3630 h1         1 9YH       0.045700
     56 H29         -3.6890     2.9490    -2.5500 h1         1 9YH       0.045700
     57 H30         -4.8580     2.1060    -3.6100 h1         1 9YH       0.045700
@<TRIPOS>BOND
     1     1     2 1   
     2     1    32 1   
     3     1    33 1   
     4     1    34 1   
     5     2     3 1   
     6     3     4 ar  
     7     3     6 ar  
     8     4     5 1   
     9     4     9 ar  
    10     5    35 1   
    11     6     7 ar  
    12     6    36 1   
    13     7     8 ar  
    14     7    37 1   
    15     8     9 ar  
    16     8    38 1   
    17     9    10 1   
    18    10    11 1   
    19    10    39 1   
    20    10    40 1   
    21    11    12 1   
    22    11    16 1   
    23    12    13 1   
    24    12    41 1   
    25    12    42 1   
    26    13    14 1   
    27    13    15 1   
    28    16    17 1   
    29    16    43 1   
    30    16    44 1   
    31    17    18 1   
    32    17    45 1   
    33    17    46 1   
    34    18    19 1   
    35    18    23 1   
    36    19    20 1   
    37    19    47 1   
    38    19    48 1   
    39    20    21 1   
    40    20    22 1   
    41    23    24 1   
    42    23    49 1   
    43    23    50 1   
    44    24    25 ar  
    45    24    29 ar  
    46    25    26 ar  
    47    25    51 1   
    48    26    27 ar  
    49    26    52 1   
    50    27    28 ar  
    51    27    53 1   
    52    28    29 ar  
    53    28    54 1   
    54    29    30 1   
    55    30    31 1   
    56    31    55 1   
    57    31    56 1   
    58    31    57 1   
@<TRIPOS>SUBSTRUCTURE
     1 9YH         1 TEMP              0 ****  ****    0 ROOT
