@<TRIPOS>MOLECULE
9YI
   56    59     1     0     0
SMALL
bcc


@<TRIPOS>ATOM
      1 C10          3.8400    -2.6380    81.9130 ca         1 9YI      -0.175600
      2 C13          1.6920    -1.5040    83.2750 ca         1 9YI       0.138600
      3 C15          2.5910    -3.2410    81.8030 ca         1 9YI       0.085700
      4 C26         -2.5890    -3.9690    84.0590 c3         1 9YI      -0.049100
      5 C28         -5.0370    -3.6080    84.5090 ca         1 9YI      -0.122000
      6 C1           7.5430    -5.9760    80.7780 c6         1 9YI      -0.075200
      7 C2           6.7600    -7.0050    81.5720 c6         1 9YI      -0.064400
      8 C3           6.2650    -6.3850    82.8650 c6         1 9YI      -0.183400
      9 C4           5.4140    -5.1580    82.6350 c          1 9YI       0.610300
     10 C5           5.7330    -4.3400    81.4590 ce         1 9YI      -0.495400
     11 C6           6.7890    -4.7020    80.6240 c2         1 9YI       0.287900
     12 C9           5.0420    -3.1020    81.1610 c          1 9YI       0.640900
     13 C11          4.0040    -1.4770    82.6600 ca         1 9YI      -0.024000
     14 C12          2.9550    -0.9160    83.3510 ca         1 9YI      -0.204000
     15 C14          1.5080    -2.6600    82.4990 ca         1 9YI      -0.214600
     16 C16          0.1610    -3.2390    82.4400 c          1 9YI       0.738100
     17 C19         -0.6540    -1.3910    83.8440 c          1 9YI       0.831500
     18 C23          2.4360    -4.4500    80.9250 c3         1 9YI      -0.056800
     19 C27         -4.0290    -4.3800    83.9340 ca         1 9YI      -0.082300
     20 C29         -6.3720    -3.9560    84.3600 ca         1 9YI      -0.130000
     21 C30         -6.7200    -5.0830    83.6270 ca         1 9YI      -0.129000
     22 C31         -5.7240    -5.8590    83.0480 ca         1 9YI      -0.130000
     23 C32         -4.3890    -5.5080    83.2020 ca         1 9YI      -0.122000
     24 N17          0.6330    -0.9390    83.9610 n          1 9YI      -0.368000
     25 N18         -0.8450    -2.5050    83.0490 n          1 9YI      -0.508400
     26 O7           7.1870    -3.9460    79.6520 oh         1 9YI      -0.499100
     27 O20         -0.1150    -4.2870    81.8920 o          1 9YI      -0.603500
     28 O21         -1.5870    -0.8550    84.4070 o          1 9YI      -0.634500
     29 O24          5.4550    -2.3420    80.2730 o          1 9YI      -0.599100
     30 H1          -0.0330     0.4560    85.3580 h1         1 9YI       0.057700
     31 H2           1.6570    -0.0050    85.5360 h1         1 9YI       0.057700
     32 H3           1.1640     1.0830    84.2220 h1         1 9YI       0.057700
     33 H4          -1.9400    -4.8460    84.0190 hc         1 9YI       0.059700
     34 H5          -2.4220    -3.4870    85.0240 hc         1 9YI       0.059700
     35 H7           7.8140    -6.3440    79.7860 hc         1 9YI       0.080200
     36 H8           8.4850    -5.7390    81.2870 hc         1 9YI       0.080200
     37 H9           5.9130    -7.3610    80.9800 hc         1 9YI       0.057200
     38 H10          7.3890    -7.8690    81.7820 hc         1 9YI       0.057200
     39 H11          5.6930    -7.0950    83.4640 hc         1 9YI       0.072700
     40 H12          7.1210    -6.0750    83.4770 hc         1 9YI       0.072700
     41 H15          4.9770    -1.0070    82.7230 ha         1 9YI       0.140000
     42 H16          3.1310    -0.0200    83.9250 ha         1 9YI       0.145000
     43 H17          2.1710    -5.3350    81.5000 hc         1 9YI       0.058700
     44 H18          1.6580    -4.3060    80.1790 hc         1 9YI       0.058700
     45 H19          3.3570    -4.6710    80.3900 hc         1 9YI       0.058700
     46 H22         -7.1420    -3.3470    84.8170 ha         1 9YI       0.129000
     47 H23         -7.7610    -5.3580    83.5110 ha         1 9YI       0.128000
     48 H24         -5.9870    -6.7420    82.4790 ha         1 9YI       0.129000
     49 H25         -3.6170    -6.1200    82.7500 ha         1 9YI       0.134000
     50 H26          6.6140    -3.1090    79.6800 ho         1 9YI       0.510000
     51 C22          0.8720     0.2160    84.8140 c3         1 9YI       0.084300
     52 C25         -2.2160    -3.0020    82.9360 c3         1 9YI       0.101000
     53 O8           4.5430    -4.8540    83.4270 o          1 9YI      -0.533100
     54 H6          -4.7710    -2.7270    85.0820 ha         1 9YI       0.134000
     55 H20         -2.8860    -2.1450    82.9410 h1         1 9YI       0.073700
     56 H21         -2.3200    -3.4890    81.9700 h1         1 9YI       0.073700
@<TRIPOS>BOND
     1     1     3 ar  
     2     1    12 1   
     3     1    13 ar  
     4     2    14 ar  
     5     2    15 ar  
     6     2    24 1   
     7     3    15 ar  
     8     3    18 1   
     9     4    19 1   
    10     4    33 1   
    11     4    34 1   
    12     4    52 1   
    13     5    19 ar  
    14     5    20 ar  
    15     5    54 1   
    16     6     7 1   
    17     6    11 1   
    18     6    35 1   
    19     6    36 1   
    20     7     8 1   
    21     7    37 1   
    22     7    38 1   
    23     8     9 1   
    24     8    39 1   
    25     8    40 1   
    26     9    10 1   
    27     9    53 2   
    28    10    11 2   
    29    10    12 1   
    30    11    26 1   
    31    12    29 2   
    32    13    14 ar  
    33    13    41 1   
    34    14    42 1   
    35    15    16 1   
    36    16    25 1   
    37    16    27 2   
    38    17    24 1   
    39    17    25 1   
    40    17    28 2   
    41    18    43 1   
    42    18    44 1   
    43    18    45 1   
    44    19    23 ar  
    45    20    21 ar  
    46    20    46 1   
    47    21    22 ar  
    48    21    47 1   
    49    22    23 ar  
    50    22    48 1   
    51    23    49 1   
    52    24    51 1   
    53    25    52 1   
    54    26    50 1   
    55    30    51 1   
    56    31    51 1   
    57    32    51 1   
    58    52    55 1   
    59    52    56 1   
@<TRIPOS>SUBSTRUCTURE
     1 9YI         1 TEMP              0 ****  ****    0 ROOT
