@<TRIPOS>MOLECULE
9YI
   56    59     1     0     0
SMALL
No Charge or Current Charge


@<TRIPOS>ATOM
      1 C10          4.1330    -2.3010    82.0630 ca         1 9YI      -0.175600
      2 C13          1.8370    -1.2450    83.3380 ca         1 9YI       0.138600
      3 C15          2.8800    -2.9550    81.9070 ca         1 9YI       0.085700
      4 C26         -2.4860    -3.9260    84.0720 c3         1 9YI      -0.049100
      5 C28         -5.0100    -3.8560    84.3630 ca         1 9YI      -0.104000
      6 C1           6.6840    -6.3980    80.5530 c6         1 9YI      -0.075200
      7 C2           5.8440    -7.1840    81.5810 c6         1 9YI      -0.064400
      8 C3           5.9050    -6.4700    82.9460 c6         1 9YI      -0.183400
      9 C4           5.4450    -5.0110    82.8560 c          1 9YI       0.610300
     10 C5           5.8120    -4.2600    81.6210 ce         1 9YI      -0.495400
     11 C6           6.3680    -4.9110    80.5750 c2         1 9YI       0.287900
     12 C9           5.4280    -2.8260    81.4950 c          1 9YI       0.640900
     13 C11          4.2000    -1.0840    82.7530 ca         1 9YI      -0.006000
     14 C12          3.0620    -0.5480    83.3550 ca         1 9YI      -0.186000
     15 C14          1.7270    -2.4350    82.5850 ca         1 9YI      -0.214600
     16 C16          0.3700    -3.1080    82.5350 c          1 9YI       0.595600
     17 C19         -0.6220    -1.1890    83.7350 c          1 9YI       0.622000
     18 C23          2.7770    -4.1450    80.9390 c3         1 9YI      -0.056800
     19 C27         -3.8710    -4.5240    83.8740 ca         1 9YI      -0.082300
     20 C29         -6.2900    -4.4060    84.1740 ca         1 9YI      -0.112000
     21 C30         -6.4380    -5.6260    83.4920 ca         1 9YI      -0.111000
     22 C31         -5.3050    -6.2950    82.9990 ca         1 9YI      -0.112000
     23 C32         -4.0250    -5.7450    83.1890 ca         1 9YI      -0.104000
     24 N17          0.6660    -0.6580    83.9280 n          1 9YI      -0.301000
     25 N18         -0.7250    -2.4110    83.0650 n          1 9YI      -0.374400
     26 O7           6.7060    -4.2970    79.4370 oh         1 9YI      -0.538100
     27 O20          0.2140    -4.2380    82.0940 o          1 9YI      -0.528000
     28 O21         -1.6160    -0.6200    84.1660 o          1 9YI      -0.559000
     29 O24          6.1030    -2.1010    80.7740 o          1 9YI      -0.599100
     30 H1          -0.0700     0.6290    85.4930 h1         1 9YI       0.057700
     31 H2           1.6700     0.3280    85.5270 h1         1 9YI       0.057700
     32 H3           0.9790     1.4150    84.2830 h1         1 9YI       0.057700
     33 H4          -1.7400    -4.7240    84.1750 hc         1 9YI       0.059700
     34 H5          -2.4510    -3.3520    85.0060 hc         1 9YI       0.059700
     35 H7           6.5130    -6.8080    79.5480 hc         1 9YI       0.080200
     36 H8           7.7530    -6.5350    80.7640 hc         1 9YI       0.080200
     37 H9           4.8000    -7.2460    81.2410 hc         1 9YI       0.057200
     38 H10          6.2130    -8.2150    81.6670 hc         1 9YI       0.057200
     39 H11          5.3500    -6.9960    83.7340 hc         1 9YI       0.072700
     40 H12          6.9610    -6.4400    83.2430 hc         1 9YI       0.072700
     41 H15          5.1460    -0.5500    82.8300 ha         1 9YI       0.122000
     42 H16          3.1660     0.4090    83.8570 ha         1 9YI       0.127000
     43 H17          2.7340    -5.0980    81.4790 hc         1 9YI       0.058700
     44 H18          1.8900    -4.0650    80.3020 hc         1 9YI       0.058700
     45 H19          3.6070    -4.1940    80.2300 hc         1 9YI       0.058700
     46 H22         -7.1660    -3.8860    84.5540 ha         1 9YI       0.111000
     47 H23         -7.4280    -6.0510    83.3450 ha         1 9YI       0.110000
     48 H24         -5.4180    -7.2390    82.4700 ha         1 9YI       0.111000
     49 H25         -3.1530    -6.2690    82.8020 ha         1 9YI       0.116000
     50 H26          6.5880    -3.3330    79.6330 ho         1 9YI       0.549000
     51 C22          0.8160     0.4950    84.8590 c3         1 9YI       0.084300
     52 C25         -2.0840    -3.0070    82.9000 c3         1 9YI       0.101000
     53 O8           4.8270    -4.5070    83.7800 o          1 9YI      -0.533100
     54 H6          -4.9050    -2.9100    84.8900 ha         1 9YI       0.116000
     55 H20         -2.8330    -2.2120    82.7960 h1         1 9YI       0.073700
     56 H21         -2.1290    -3.5810    81.9650 h1         1 9YI       0.073700
@<TRIPOS>BOND
     1     1     3 ar  
     2     1    12 1   
     3     1    13 ar  
     4     2    14 ar  
     5     2    15 ar  
     6     2    24 1   
     7     3    15 ar  
     8     3    18 1   
     9     4    19 1   
    10     4    33 1   
    11     4    34 1   
    12     4    52 1   
    13     5    19 ar  
    14     5    20 ar  
    15     5    54 1   
    16     6     7 1   
    17     6    11 1   
    18     6    35 1   
    19     6    36 1   
    20     7     8 1   
    21     7    37 1   
    22     7    38 1   
    23     8     9 1   
    24     8    39 1   
    25     8    40 1   
    26     9    10 1   
    27     9    53 2   
    28    10    11 2   
    29    10    12 1   
    30    11    26 1   
    31    12    29 2   
    32    13    14 ar  
    33    13    41 1   
    34    14    42 1   
    35    15    16 1   
    36    16    25 1   
    37    16    27 2   
    38    17    24 1   
    39    17    25 1   
    40    17    28 2   
    41    18    43 1   
    42    18    44 1   
    43    18    45 1   
    44    19    23 ar  
    45    20    21 ar  
    46    20    46 1   
    47    21    22 ar  
    48    21    47 1   
    49    22    23 ar  
    50    22    48 1   
    51    23    49 1   
    52    24    51 1   
    53    25    52 1   
    54    26    50 1   
    55    30    51 1   
    56    31    51 1   
    57    32    51 1   
    58    52    55 1   
    59    52    56 1   
@<TRIPOS>SUBSTRUCTURE
     1 9YI         1 TEMP              0 ****  ****    0 ROOT
