@<TRIPOS>MOLECULE
9YK
   54    55     1     0     0
SMALL
bcc


@<TRIPOS>ATOM
      1 OAX         -7.0510     0.3090     0.9570 oh         1 9YK      -0.479100
      2 CAR         -5.8950     1.0060     0.8570 ca         1 9YK       0.044100
      3 CAS         -4.7020     0.2650     0.9800 ca         1 9YK       0.199100
      4 OAY         -4.8220    -1.0510     1.1780 oh         1 9YK      -0.585100
      5 CAQ         -5.8560     2.3730     0.6370 ca         1 9YK      -0.207000
      6 CAE         -4.6330     3.0310     0.5370 ca         1 9YK      -0.185000
      7 CAF         -3.4610     2.3150     0.6740 ca         1 9YK      -0.101000
      8 CAG         -3.4790     0.9390     0.9130 ca         1 9YK      -0.147300
      9 CAH         -2.1710     0.2240     1.1210 c3         1 9YK       0.227100
     10 N           -1.4310    -0.0020    -0.1160 n3         1 9YK      -0.733600
     11 CA          -2.1560    -0.7470    -1.1360 c3         1 9YK       0.036800
     12 C           -2.3320    -2.2440    -0.8310 c          1 9YK       0.899600
     13 OXT         -3.1200    -2.5510     0.1160 o          1 9YK      -0.808800
     14 O           -1.6860    -3.0640    -1.4910 o          1 9YK      -0.808800
     15 CAJ         -0.1170    -0.5490     0.1830 c3         1 9YK       0.172800
     16 CAK          0.8380    -0.5350    -1.0040 c3         1 9YK       0.162800
     17 NAL          2.1290    -1.0890    -0.6190 n3         1 9YK      -0.695600
     18 CAT          2.1170    -2.5340    -0.7340 c3         1 9YK       0.016800
     19 CAZ          3.2340    -3.3190    -0.0200 c          1 9YK       0.927600
     20 OBD          3.2350    -4.5440    -0.2770 o          1 9YK      -0.848800
     21 OBA          4.0070    -2.7200     0.7450 o          1 9YK      -0.848800
     22 CAM          3.2360    -0.5260    -1.3640 c3         1 9YK       0.210100
     23 CAN          3.3530     0.9690    -1.2360 ca         1 9YK      -0.040300
     24 CAO          3.3820     1.7470    -2.3880 ca         1 9YK      -0.127000
     25 CAP          3.5220     3.1270    -2.3400 ca         1 9YK      -0.160000
     26 CAW          3.6190     3.7490    -1.1070 ca         1 9YK      -0.140000
     27 CAV          3.5810     2.9950     0.0590 ca         1 9YK      -0.162000
     28 CAU          3.4540     1.6070     0.0130 ca         1 9YK       0.037900
     29 SBB          3.4210     0.6150     1.4740 ss         1 9YK      -0.040000
     30 CBE          4.0320     1.7660     2.7280 c3         1 9YK      -0.092000
     31 H1          -7.7990     0.9100     0.8670 ho         1 9YK       0.386000
     32 H2          -4.0600    -1.5910     0.7580 ho         1 9YK       0.528000
     33 H3          -6.7820     2.9280     0.5360 ha         1 9YK       0.097000
     34 H4          -4.6110     4.0990     0.3620 ha         1 9YK       0.103000
     35 H5          -2.5060     2.8230     0.6120 ha         1 9YK       0.127000
     36 H6          -1.5410     0.8610     1.7470 h1         1 9YK       0.037200
     37 H7          -2.3210    -0.6990     1.6990 h1         1 9YK       0.037200
     38 H9          -3.1330    -0.2730    -1.2730 h1         1 9YK       0.035200
     39 H10         -1.6320    -0.6380    -2.0870 h1         1 9YK       0.035200
     40 H12          0.3360     0.0690     0.9620 h1         1 9YK       0.042200
     41 H13         -0.1820    -1.5650     0.6070 h1         1 9YK       0.042200
     42 H14          0.4230    -1.0780    -1.8650 h1         1 9YK       0.028200
     43 H15          0.9610     0.5030    -1.3180 h1         1 9YK       0.028200
     44 H17          1.1670    -2.9010    -0.3320 h1         1 9YK       0.036200
     45 H18          2.1080    -2.8430    -1.7950 h1         1 9YK       0.036200
     46 H20          4.1510    -0.9860    -0.9850 h1         1 9YK       0.047700
     47 H21          3.1760    -0.7750    -2.4380 h1         1 9YK       0.047700
     48 H22          3.2930     1.2520    -3.3480 ha         1 9YK       0.122000
     49 H23          3.5490     3.7060    -3.2540 ha         1 9YK       0.107000
     50 H24          3.7200     4.8240    -1.0390 ha         1 9YK       0.102000
     51 H25          3.6540     3.5120     1.0050 ha         1 9YK       0.114000
     52 H26          4.9950     2.1950     2.4560 h1         1 9YK       0.045033
     53 H27          3.3250     2.5640     2.9480 h1         1 9YK       0.045033
     54 H28          4.1610     1.1720     3.6310 h1         1 9YK       0.045033
@<TRIPOS>BOND
     1     1     2 1   
     2     1    31 1   
     3     2     3 ar  
     4     2     5 ar  
     5     3     4 1   
     6     3     8 ar  
     7     4    32 1   
     8     5     6 ar  
     9     5    33 1   
    10     6     7 ar  
    11     6    34 1   
    12     7     8 ar  
    13     7    35 1   
    14     8     9 1   
    15     9    10 1   
    16     9    36 1   
    17     9    37 1   
    18    10    11 1   
    19    10    15 1   
    20    11    12 1   
    21    11    38 1   
    22    11    39 1   
    23    12    13 1   
    24    12    14 1   
    25    15    16 1   
    26    15    40 1   
    27    15    41 1   
    28    16    17 1   
    29    16    42 1   
    30    16    43 1   
    31    17    18 1   
    32    17    22 1   
    33    18    19 1   
    34    18    44 1   
    35    18    45 1   
    36    19    20 1   
    37    19    21 1   
    38    22    23 1   
    39    22    46 1   
    40    22    47 1   
    41    23    24 ar  
    42    23    28 ar  
    43    24    25 ar  
    44    24    48 1   
    45    25    26 ar  
    46    25    49 1   
    47    26    27 ar  
    48    26    50 1   
    49    27    28 ar  
    50    27    51 1   
    51    28    29 1   
    52    29    30 1   
    53    30    52 1   
    54    30    53 1   
    55    30    54 1   
@<TRIPOS>SUBSTRUCTURE
     1 9YK         1 TEMP              0 ****  ****    0 ROOT
