@<TRIPOS>MOLECULE
9YK
   54    55     1     0     0
SMALL
No Charge or Current Charge


@<TRIPOS>ATOM
      1 OAX         -7.4490     0.5290     0.6130 oh         1 9YK      -0.518100
      2 CAR         -6.1740     1.0070     0.7770 ca         1 9YK       0.044100
      3 CAS         -5.0570     0.1310     0.8530 ca         1 9YK       0.199100
      4 OAY         -5.2510    -1.2250     0.7630 oh         1 9YK      -0.624100
      5 CAQ         -5.9880     2.3970     0.8620 ca         1 9YK      -0.189000
      6 CAE         -4.6990     2.9230     1.0250 ca         1 9YK      -0.167000
      7 CAF         -3.5920     2.0630     1.1100 ca         1 9YK      -0.083000
      8 CAG         -3.7560     0.6650     1.0260 ca         1 9YK      -0.147300
      9 CAH         -2.5140    -0.2190     1.1660 c3         1 9YK       0.227100
     10 N           -1.5440    -0.0740     0.0490 n3         1 9YK      -0.733600
     11 CA          -2.1400    -0.3760    -1.3040 c3         1 9YK       0.036800
     12 C           -2.6560    -1.8280    -1.5890 c          1 9YK       0.689000
     13 OXT         -3.7010    -2.1790    -1.0530 o          1 9YK      -0.703500
     14 O           -1.9960    -2.5540    -2.3200 o          1 9YK      -0.703500
     15 CAJ         -0.2740    -0.8100     0.3210 c3         1 9YK       0.172800
     16 CAK          0.8960    -0.5330    -0.6730 c3         1 9YK       0.162800
     17 NAL          2.2300    -1.0800    -0.2780 n3         1 9YK      -0.695600
     18 CAT          2.2320    -2.5780    -0.1050 c3         1 9YK       0.016800
     19 CAZ          3.5480    -3.2860     0.3790 c          1 9YK       0.717000
     20 OBD          4.2940    -3.7700    -0.4640 o          1 9YK      -0.743500
     21 OBA          3.7690    -3.3560     1.5820 o          1 9YK      -0.743500
     22 CAM          3.3290    -0.6170    -1.1730 c3         1 9YK       0.210100
     23 CAN          3.4820     0.9070    -1.2690 ca         1 9YK      -0.040300
     24 CAO          3.0390     1.5620    -2.4370 ca         1 9YK      -0.109000
     25 CAP          3.1640     2.9540    -2.5700 ca         1 9YK      -0.142000
     26 CAW          3.7390     3.7050    -1.5350 ca         1 9YK      -0.122000
     27 CAV          4.1860     3.0670    -0.3680 ca         1 9YK      -0.144000
     28 CAU          4.0590     1.6670    -0.2200 ca         1 9YK      -0.089000
     29 SBB          4.6360     0.8390     1.2750 ss         1 9YK       0.039000
     30 CBE          4.6950     2.1470     2.5740 c3         1 9YK      -0.044100
     31 H1          -8.0640     1.2920     0.5860 ho         1 9YK       0.425000
     32 H2          -4.6050    -1.5860     0.0790 ho         1 9YK       0.567000
     33 H3          -6.8380     3.0720     0.8010 ha         1 9YK       0.079000
     34 H4          -4.5550     3.9990     1.0910 ha         1 9YK       0.085000
     35 H5          -2.5970     2.4840     1.2430 ha         1 9YK       0.109000
     36 H6          -2.0230     0.0610     2.1080 h1         1 9YK       0.037200
     37 H7          -2.8020    -1.2720     1.2820 h1         1 9YK       0.037200
     38 H9          -2.9920     0.2920    -1.4850 h1         1 9YK       0.035200
     39 H10         -1.4140    -0.1330    -2.0900 h1         1 9YK       0.035200
     40 H12          0.0880    -0.5410     1.3230 h1         1 9YK       0.042200
     41 H13         -0.4750    -1.8900     0.3360 h1         1 9YK       0.042200
     42 H14          0.6210    -0.9280    -1.6600 h1         1 9YK       0.028200
     43 H15          0.9650     0.5580    -0.7750 h1         1 9YK       0.028200
     44 H17          1.4610    -2.8660     0.6220 h1         1 9YK       0.036200
     45 H18          1.9490    -3.0510    -1.0550 h1         1 9YK       0.036200
     46 H20          4.2900    -1.0240    -0.8330 h1         1 9YK       0.047700
     47 H21          3.1710    -1.0180    -2.1830 h1         1 9YK       0.047700
     48 H22          2.5920     0.9890    -3.2460 ha         1 9YK       0.104000
     49 H23          2.8180     3.4480    -3.4740 ha         1 9YK       0.089000
     50 H24          3.8410     4.7830    -1.6390 ha         1 9YK       0.084000
     51 H25          4.6370     3.6730     0.4120 ha         1 9YK       0.096000
     52 H26          5.4800     2.8760     2.3350 h1         1 9YK       0.045033
     53 H27          3.7240     2.6530     2.6310 h1         1 9YK       0.045033
     54 H28          4.9220     1.6850     3.5420 h1         1 9YK       0.045033
@<TRIPOS>BOND
     1     1     2 1   
     2     1    31 1   
     3     2     3 ar  
     4     2     5 ar  
     5     3     4 1   
     6     3     8 ar  
     7     4    32 1   
     8     5     6 ar  
     9     5    33 1   
    10     6     7 ar  
    11     6    34 1   
    12     7     8 ar  
    13     7    35 1   
    14     8     9 1   
    15     9    10 1   
    16     9    36 1   
    17     9    37 1   
    18    10    11 1   
    19    10    15 1   
    20    11    12 1   
    21    11    38 1   
    22    11    39 1   
    23    12    13 1   
    24    12    14 1   
    25    15    16 1   
    26    15    40 1   
    27    15    41 1   
    28    16    17 1   
    29    16    42 1   
    30    16    43 1   
    31    17    18 1   
    32    17    22 1   
    33    18    19 1   
    34    18    44 1   
    35    18    45 1   
    36    19    20 1   
    37    19    21 1   
    38    22    23 1   
    39    22    46 1   
    40    22    47 1   
    41    23    24 ar  
    42    23    28 ar  
    43    24    25 ar  
    44    24    48 1   
    45    25    26 ar  
    46    25    49 1   
    47    26    27 ar  
    48    26    50 1   
    49    27    28 ar  
    50    27    51 1   
    51    28    29 1   
    52    29    30 1   
    53    30    52 1   
    54    30    53 1   
    55    30    54 1   
@<TRIPOS>SUBSTRUCTURE
     1 9YK         1 TEMP              0 ****  ****    0 ROOT
