@<TRIPOS>MOLECULE
9YL
   18    17     1     0     0
SMALL
bcc


@<TRIPOS>ATOM
      1 C1          -0.2020     0.4470     0.0310 c          1 9YL       0.606100
      2 O2          -2.5560     0.4760    -0.4550 oh         1 9YL      -0.571800
      3 C3          -1.6220    -1.5400     0.5530 c3         1 9YL      -0.125100
      4 C7           2.1620     0.3740     0.1900 c3         1 9YL       0.143400
      5 C8           3.2670    -0.5800    -0.1890 c3         1 9YL      -0.098100
      6 C2          -1.4300    -0.3500    -0.3860 c3         1 9YL       0.096100
      7 O1          -0.2470     1.5410     0.5350 o          1 9YL      -0.536000
      8 OXT          0.9130    -0.2230    -0.2010 os         1 9YL      -0.425900
      9 H1          -2.7300     0.8400     0.4210 ho         1 9YL       0.418000
     10 H2          -1.7560    -1.2090     1.5850 hc         1 9YL       0.051700
     11 H3          -2.5090    -2.1000     0.2580 hc         1 9YL       0.051700
     12 H4          -0.7700    -2.2170     0.5200 hc         1 9YL       0.051700
     13 H5           2.1560     0.5590     1.2660 h1         1 9YL       0.049200
     14 H6           2.2840     1.3330    -0.3160 h1         1 9YL       0.049200
     15 H7           3.1610    -1.5400     0.3170 hc         1 9YL       0.047033
     16 H8           3.2970    -0.7530    -1.2650 hc         1 9YL       0.047033
     17 H9           4.2240    -0.1510     0.1060 hc         1 9YL       0.047033
     18 H10         -1.2610    -0.7260    -1.3990 h1         1 9YL       0.098700
@<TRIPOS>BOND
     1     1     6 1   
     2     1     7 2   
     3     1     8 1   
     4     2     6 1   
     5     2     9 1   
     6     3     6 1   
     7     3    10 1   
     8     3    11 1   
     9     3    12 1   
    10     4     5 1   
    11     4     8 1   
    12     4    13 1   
    13     4    14 1   
    14     5    15 1   
    15     5    16 1   
    16     5    17 1   
    17     6    18 1   
@<TRIPOS>SUBSTRUCTURE
     1 9YL         1 TEMP              0 ****  ****    0 ROOT
