@<TRIPOS>MOLECULE
9YL
   18    17     1     0     0
SMALL
No Charge or Current Charge


@<TRIPOS>ATOM
      1 C1          -0.2150     0.4230     0.1020 c          1 9YL       0.557100
      2 O2          -2.6680     0.4200    -0.4010 oh         1 9YL      -0.634000
      3 C3          -1.7240    -1.6100     0.5520 c3         1 9YL      -0.125100
      4 C7           2.1930     0.3990     0.1900 c3         1 9YL       0.166600
      5 C8           3.3340    -0.5500    -0.2120 c3         1 9YL      -0.098100
      6 C2          -1.4660    -0.3880    -0.3570 c3         1 9YL       0.119300
      7 O1          -0.2740     1.5400     0.6060 o          1 9YL      -0.487000
      8 OXT          0.9560    -0.2400    -0.1690 os         1 9YL      -0.449100
      9 H1          -2.5700     1.1160     0.2890 ho         1 9YL       0.457000
     10 H2          -1.9270    -1.2950     1.5820 hc         1 9YL       0.051700
     11 H3          -2.5850    -2.1860     0.1900 hc         1 9YL       0.051700
     12 H4          -0.8520    -2.2740     0.5620 hc         1 9YL       0.051700
     13 H5           2.2380     0.5880     1.2710 h1         1 9YL       0.049200
     14 H6           2.3090     1.3550    -0.3380 h1         1 9YL       0.049200
     15 H7           3.2440    -1.5070     0.3160 hc         1 9YL       0.047033
     16 H8           3.3150    -0.7410    -1.2910 hc         1 9YL       0.047033
     17 H9           4.3030    -0.1060     0.0430 hc         1 9YL       0.047033
     18 H10         -1.2300    -0.7630    -1.3630 h1         1 9YL       0.098700
@<TRIPOS>BOND
     1     1     6 1   
     2     1     7 2   
     3     1     8 1   
     4     2     6 1   
     5     2     9 1   
     6     3     6 1   
     7     3    10 1   
     8     3    11 1   
     9     3    12 1   
    10     4     5 1   
    11     4     8 1   
    12     4    13 1   
    13     4    14 1   
    14     5    15 1   
    15     5    16 1   
    16     5    17 1   
    17     6    18 1   
@<TRIPOS>SUBSTRUCTURE
     1 9YL         1 TEMP              0 ****  ****    0 ROOT
