@<TRIPOS>MOLECULE
9YM
   48    49     1     0     0
SMALL
No Charge or Current Charge


@<TRIPOS>ATOM
      1 O2P        -11.1250    -3.0820    18.3050 o          1 9YM      -0.898833
      2 P          -11.3550    -2.9660    16.8390 p5         1 9YM       1.301900
      3 O3P        -10.9560    -1.6180    16.3520 o          1 9YM      -0.898833
      4 O1P        -12.7940    -3.2000    16.5400 o          1 9YM      -0.898833
      5 O4P        -10.4850    -4.0750    16.0720 os         1 9YM      -0.590400
      6 C5A         -9.0650    -4.0600    16.2590 c3         1 9YM       0.249900
      7 C5          -8.3960    -4.7460    15.0710 ca         1 9YM      -0.016300
      8 C4          -8.1510    -4.0770    13.8430 ca         1 9YM      -0.109300
      9 C4A         -8.5890    -2.6230    13.6510 c3         1 9YM       0.199100
     10 C3          -7.4960    -4.8060    12.8180 ca         1 9YM       0.064100
     11 O3          -7.2020    -4.2170    11.6090 oh         1 9YM      -0.567100
     12 C2          -7.1360    -6.1620    13.0600 ca         1 9YM       0.278300
     13 C2A         -6.4330    -6.9990    11.9970 c3         1 9YM      -0.114400
     14 N1          -7.3830    -6.7940    14.2320 nb         1 9YM      -0.678000
     15 C6          -7.9990    -6.0900    15.2080 ca         1 9YM       0.284900
     16 OD4         -7.6680     4.0240    14.9080 oh         1 9YM      -0.761000
     17 CD4         -7.5990     2.5920    15.0600 c6         1 9YM       0.134300
     18 CD5         -8.9530     1.9590    14.6420 c6         1 9YM       0.125300
     19 OD5        -10.0400     2.5560    15.3710 oh         1 9YM      -0.704000
     20 CD6         -8.9390     0.4130    14.8680 c6         1 9YM       0.179300
     21 OD6        -10.2470    -0.1050    14.5240 oh         1 9YM      -0.842000
     22 CD3         -6.4490     1.9700    14.2030 c6         1 9YM       0.163500
     23 ND3         -5.1390     2.5860    14.5310 n8         1 9YM      -1.002200
     24 CD2         -6.4020     0.4330    14.3950 c6         1 9YM      -0.082400
     25 CD1         -7.7570    -0.2460    14.0410 c6         1 9YM       0.161500
     26 ND1         -7.5870    -1.7120    14.2420 n7         1 9YM      -0.842400
     27 H3          -8.8020    -4.5940    17.1810 h1         1 9YM       0.032700
     28 H4          -8.6820    -3.0370    16.3610 h1         1 9YM       0.032700
     29 H5          -9.5730    -2.4890    14.1170 h1         1 9YM       0.068200
     30 H6          -8.7330    -2.4070    12.5840 h1         1 9YM       0.068200
     31 H8          -6.2370    -8.0230    12.3380 hc         1 9YM       0.030367
     32 H9          -7.0430    -7.0660    11.0880 hc         1 9YM       0.030367
     33 H10         -5.4710    -6.5520    11.7230 hc         1 9YM       0.030367
     34 H11         -8.1770    -6.6260    16.1400 h4         1 9YM       0.020100
     35 H13         -7.4180     2.3450    16.1180 h1         1 9YM       0.040700
     36 H14         -9.0970     2.1390    13.5660 h1         1 9YM       0.029700
     37 H15        -10.7650     1.8900    15.2850 ho         1 9YM       0.495000
     38 H16         -8.7400     0.2280    15.9360 h1         1 9YM       0.062700
     39 H17        -10.5040    -0.7570    15.2880 ho         1 9YM       0.632000
     40 H18         -6.6540     2.1870    13.1430 h1         1 9YM       0.060700
     41 H19         -5.3100     3.5970    14.5990 hn         1 9YM       0.389000
     42 H20         -4.8940     2.3320    15.4940 hn         1 9YM       0.389000
     43 H22         -5.6060     0.0120    13.7660 hc         1 9YM       0.042700
     44 H23         -6.1350     0.1980    15.4360 hc         1 9YM       0.042700
     45 H24         -7.9420    -0.0680    12.9710 h1         1 9YM       0.011700
     46 H25         -6.6730    -1.9760    13.8620 hn         1 9YM       0.374000
     47 H27         -7.3990    -3.2590    11.6570 ho         1 9YM       0.459000
     48 H12         -8.6090     4.2330    15.1280 ho         1 9YM       0.519000
@<TRIPOS>BOND
     1     1     2 1   
     2     2     3 1   
     3     2     4 1   
     4     2     5 1   
     5     5     6 1   
     6     6     7 1   
     7     6    27 1   
     8     6    28 1   
     9     7     8 ar  
    10     7    15 ar  
    11     8     9 1   
    12     8    10 ar  
    13     9    26 1   
    14     9    29 1   
    15     9    30 1   
    16    10    11 1   
    17    10    12 ar  
    18    11    47 1   
    19    12    13 1   
    20    12    14 ar  
    21    13    31 1   
    22    13    32 1   
    23    13    33 1   
    24    14    15 ar  
    25    15    34 1   
    26    16    17 1   
    27    16    48 1   
    28    17    18 1   
    29    17    22 1   
    30    17    35 1   
    31    18    19 1   
    32    18    20 1   
    33    18    36 1   
    34    19    37 1   
    35    20    21 1   
    36    20    25 1   
    37    20    38 1   
    38    21    39 1   
    39    22    23 1   
    40    22    24 1   
    41    22    40 1   
    42    23    41 1   
    43    23    42 1   
    44    24    25 1   
    45    24    43 1   
    46    24    44 1   
    47    25    26 1   
    48    25    45 1   
    49    26    46 1   
@<TRIPOS>SUBSTRUCTURE
     1 9YM         1 TEMP              0 ****  ****    0 ROOT
