@<TRIPOS>MOLECULE
9YM
   48    49     1     0     0
SMALL
abcg2


@<TRIPOS>ATOM
      1 O2P        -11.4750    -3.5480    18.2190 o          1 9YM      -0.898833
      2 P          -11.5200    -2.9010    16.8460 p5         1 9YM       1.301900
      3 O3P        -10.8250    -1.5250    16.8310 o          1 9YM      -0.898833
      4 O1P        -12.8680    -2.9160    16.1530 o          1 9YM      -0.898833
      5 O4P        -10.5920    -3.8680    15.8340 os         1 9YM      -0.590400
      6 C5A         -9.2240    -4.0610    16.1840 c3         1 9YM       0.249900
      7 C5          -8.4840    -4.7290    15.0570 ca         1 9YM      -0.016300
      8 C4          -8.1670    -4.0490    13.8710 ca         1 9YM      -0.109300
      9 C4A         -8.5580    -2.6070    13.6780 c3         1 9YM       0.199100
     10 C3          -7.4480    -4.7480    12.9040 ca         1 9YM       0.064100
     11 O3          -7.0530    -4.2050    11.7150 oh         1 9YM      -0.567100
     12 C2          -7.0750    -6.0870    13.1200 ca         1 9YM       0.278300
     13 C2A         -6.2990    -6.8330    12.0750 c3         1 9YM      -0.114400
     14 N1          -7.3930    -6.7140    14.2500 nb         1 9YM      -0.678000
     15 C6          -8.0770    -6.0470    15.1870 ca         1 9YM       0.284900
     16 OD4         -7.6940     3.9240    14.7470 oh         1 9YM      -0.761000
     17 CD4         -7.6000     2.5170    14.9910 c6         1 9YM       0.134300
     18 CD5         -8.9230     1.8260    14.7320 c6         1 9YM       0.125300
     19 OD5         -9.9080     2.3970    15.5950 oh         1 9YM      -0.704000
     20 CD6         -8.8410     0.3170    14.9550 c6         1 9YM       0.179300
     21 OD6        -10.1400    -0.2070    14.7480 oh         1 9YM      -0.842000
     22 CD3         -6.5160     1.9440    14.0810 c6         1 9YM       0.163500
     23 ND3         -5.1900     2.5340    14.2940 n8         1 9YM      -1.002200
     24 CD2         -6.4400     0.4300    14.2550 c6         1 9YM      -0.082400
     25 CD1         -7.7730    -0.2900    14.0370 c6         1 9YM       0.161500
     26 ND1         -7.5670    -1.7190    14.2980 n7         1 9YM      -0.842400
     27 H3          -9.1530    -4.6850    17.0790 h1         1 9YM       0.032700
     28 H4          -8.7630    -3.0960    16.4100 h1         1 9YM       0.032700
     29 H5          -9.5220    -2.4330    14.1410 h1         1 9YM       0.068200
     30 H6          -8.6960    -2.3750    12.6090 h1         1 9YM       0.068200
     31 H8          -6.1180    -7.8520    12.4120 hc         1 9YM       0.030367
     32 H9          -6.8390    -6.8590    11.1260 hc         1 9YM       0.030367
     33 H10         -5.3390    -6.3480    11.8790 hc         1 9YM       0.030367
     34 H11         -8.3090    -6.5940    16.0950 h4         1 9YM       0.020100
     35 H13         -7.3110     2.3470    16.0380 h1         1 9YM       0.040700
     36 H14         -9.2120     2.0060    13.6870 h1         1 9YM       0.029700
     37 H15        -10.6650     1.7940    15.5510 ho         1 9YM       0.495000
     38 H16         -8.5330     0.1350    15.9930 h1         1 9YM       0.062700
     39 H17        -10.4150    -0.7660    15.5520 ho         1 9YM       0.632000
     40 H18         -6.8060     2.1710    13.0490 h1         1 9YM       0.060700
     41 H19         -5.2610     3.5440    14.2280 hn         1 9YM       0.389000
     42 H20         -4.8850     2.3360    15.2450 hn         1 9YM       0.389000
     43 H22         -5.6950     0.0340    13.5610 hc         1 9YM       0.042700
     44 H23         -6.0860     0.2060    15.2670 hc         1 9YM       0.042700
     45 H24         -8.0990    -0.1300    12.9960 h1         1 9YM       0.011700
     46 H25         -6.6490    -1.9740    13.9470 hn         1 9YM       0.374000
     47 H27         -7.3670    -3.2940    11.6340 ho         1 9YM       0.459000
     48 H12         -8.4370     4.2580    15.2660 ho         1 9YM       0.519000
@<TRIPOS>BOND
     1     1     2 1   
     2     2     3 1   
     3     2     4 1   
     4     2     5 1   
     5     5     6 1   
     6     6     7 1   
     7     6    27 1   
     8     6    28 1   
     9     7     8 ar  
    10     7    15 ar  
    11     8     9 1   
    12     8    10 ar  
    13     9    26 1   
    14     9    29 1   
    15     9    30 1   
    16    10    11 1   
    17    10    12 ar  
    18    11    47 1   
    19    12    13 1   
    20    12    14 ar  
    21    13    31 1   
    22    13    32 1   
    23    13    33 1   
    24    14    15 ar  
    25    15    34 1   
    26    16    17 1   
    27    16    48 1   
    28    17    18 1   
    29    17    22 1   
    30    17    35 1   
    31    18    19 1   
    32    18    20 1   
    33    18    36 1   
    34    19    37 1   
    35    20    21 1   
    36    20    25 1   
    37    20    38 1   
    38    21    39 1   
    39    22    23 1   
    40    22    24 1   
    41    22    40 1   
    42    23    41 1   
    43    23    42 1   
    44    24    25 1   
    45    24    43 1   
    46    24    44 1   
    47    25    26 1   
    48    25    45 1   
    49    26    46 1   
@<TRIPOS>SUBSTRUCTURE
     1 9YM         1 TEMP              0 ****  ****    0 ROOT
