@<TRIPOS>MOLECULE
9YN
   52    54     1     0     0
SMALL
No Charge or Current Charge


@<TRIPOS>ATOM
      1 O           -2.3130     0.7800     2.0130 o          1 9YN      -0.613100
      2 C           -2.2120    -0.0100     1.0780 c          1 9YN       0.616100
      3 CA          -3.2260    -1.1940     0.8550 c3         1 9YN       0.089500
      4 CB          -4.6330    -0.6450     0.4870 c3         1 9YN      -0.114400
      5 CG1         -5.6850    -1.6910     0.0100 c3         1 9YN      -0.060700
      6 CD1         -7.0630    -1.0220    -0.2020 c3         1 9YN      -0.089600
      7 CD2         -5.2450    -2.4460    -1.2680 c3         1 9YN      -0.089600
      8 N           -3.3300    -2.1670     1.9940 n8         1 9YN      -0.984200
      9 NAI         -1.1830     0.0630     0.1570 ns         1 9YN      -0.485900
     10 CAJ         -0.2610     1.2190     0.2310 c5         1 9YN       0.083700
     11 CAK         -0.8990     2.3980    -0.5710 c5         1 9YN       0.127300
     12 OAL         -1.5660     1.9730    -1.7800 oh         1 9YN      -0.696000
     13 CAM          0.4120     3.2090    -0.8610 c5         1 9YN       0.123300
     14 CAN          0.8880     4.0860     0.3380 c3         1 9YN       0.140600
     15 OAO          1.9470     4.9760    -0.0570 oh         1 9YN      -0.707000
     16 OAP          1.4200     2.1980    -1.1580 os         1 9YN      -0.425000
     17 CAQ          0.9600     0.9070    -0.6880 c5         1 9YN       0.306300
     18 N9           2.0820     0.1670    -0.1130 na         1 9YN      -0.301300
     19 C8           2.4940     0.2000     1.2240 cc         1 9YN       0.421700
     20 N7           3.5330    -0.6310     1.4390 nd         1 9YN      -0.559100
     21 C5           3.7580    -1.1950     0.1790 ca         1 9YN      -0.094600
     22 C4           2.8880    -0.7190    -0.7680 ca         1 9YN       0.123500
     23 C6           4.7230    -2.1430    -0.2210 ca         1 9YN       0.455900
     24 N6           5.6330    -2.6730     0.6390 nv         1 9YN      -1.062900
     25 N1           4.7940    -2.5670    -1.4930 nb         1 9YN      -0.303000
     26 C2           3.8870    -2.0360    -2.3490 ca         1 9YN       0.188900
     27 N3           2.9270    -1.1270    -2.0510 nb         1 9YN      -0.250000
     28 H1          -2.8490    -1.7530    -0.0120 h1         1 9YN       0.070700
     29 H2          -5.0340    -0.1040     1.3540 hc         1 9YN       0.055700
     30 H3          -4.5120     0.1060    -0.3040 hc         1 9YN       0.055700
     31 H4          -5.8170    -2.4360     0.8040 hc         1 9YN       0.038700
     32 H5          -7.0130    -0.2650    -0.9940 hc         1 9YN       0.034867
     33 H6          -7.8160    -1.7670    -0.4860 hc         1 9YN       0.034867
     34 H7          -7.4040    -0.5340     0.7190 hc         1 9YN       0.034867
     35 H8          -4.3450    -3.0440    -1.0870 hc         1 9YN       0.034867
     36 H9          -6.0330    -3.1330    -1.6010 hc         1 9YN       0.034867
     37 H10         -5.0370    -1.7450    -2.0850 hc         1 9YN       0.034867
     38 H11         -3.6460    -1.6650     2.8330 hn         1 9YN       0.405000
     39 H12         -4.0930    -2.8270     1.8040 hn         1 9YN       0.405000
     40 H14         -1.1970    -0.6040    -0.6060 hn         1 9YN       0.347500
     41 H15          0.0260     1.5020     1.2520 h1         1 9YN       0.079700
     42 H16         -1.5930     2.9680     0.0640 h1         1 9YN       0.077700
     43 H17         -2.0060     2.7640    -2.1710 ho         1 9YN       0.509000
     44 H18          0.2860     3.8630    -1.7330 h1         1 9YN       0.090700
     45 H19          0.0320     4.6690     0.7040 h1         1 9YN       0.028700
     46 H20          1.2220     3.4380     1.1600 h1         1 9YN       0.028700
     47 H21          2.2230     5.4770     0.7470 ho         1 9YN       0.508000
     48 H22          0.6220     0.3270    -1.5570 h2         1 9YN       0.103700
     49 H23          2.0210     0.8300     1.9690 h5         1 9YN       0.083800
     50 H24          5.7360    -2.2040     1.5360 hn         1 9YN       0.508000
     51 H25          6.4700    -3.1000     0.2500 hn         1 9YN       0.508000
     52 H26          3.9340    -2.3750    -3.3820 h5         1 9YN       0.044100
@<TRIPOS>BOND
     1     1     2 2   
     2     2     3 1   
     3     2     9 1   
     4     3     4 1   
     5     3     8 1   
     6     3    28 1   
     7     4     5 1   
     8     4    29 1   
     9     4    30 1   
    10     5     6 1   
    11     5     7 1   
    12     5    31 1   
    13     6    32 1   
    14     6    33 1   
    15     6    34 1   
    16     7    35 1   
    17     7    36 1   
    18     7    37 1   
    19     8    38 1   
    20     8    39 1   
    21     9    10 1   
    22     9    40 1   
    23    10    11 1   
    24    10    17 1   
    25    10    41 1   
    26    11    12 1   
    27    11    13 1   
    28    11    42 1   
    29    12    43 1   
    30    13    14 1   
    31    13    16 1   
    32    13    44 1   
    33    14    15 1   
    34    14    45 1   
    35    14    46 1   
    36    15    47 1   
    37    16    17 1   
    38    17    18 1   
    39    17    48 1   
    40    18    19 1   
    41    18    22 1   
    42    19    20 2   
    43    19    49 1   
    44    20    21 1   
    45    21    22 ar  
    46    21    23 ar  
    47    22    27 ar  
    48    23    24 1   
    49    23    25 ar  
    50    24    50 1   
    51    24    51 1   
    52    25    26 ar  
    53    26    27 ar  
    54    26    52 1   
@<TRIPOS>SUBSTRUCTURE
     1 9YN         1 TEMP              0 ****  ****    0 ROOT
