@<TRIPOS>MOLECULE
9YN
   52    54     1     0     0
SMALL
bcc


@<TRIPOS>ATOM
      1 O           -2.2990     0.6940     2.0350 o          1 9YN      -0.613100
      2 C           -2.0740    -0.0270     1.0750 c          1 9YN       0.683100
      3 CA          -2.9010    -1.2700     0.7860 c3         1 9YN       0.089500
      4 CB          -4.1430    -0.8320    -0.0100 c3         1 9YN      -0.114400
      5 CG1         -5.0720    -1.9740    -0.4260 c3         1 9YN      -0.060700
      6 CD1         -6.3090    -1.4060    -1.1170 c3         1 9YN      -0.089600
      7 CD2         -4.3710    -2.9860    -1.3270 c3         1 9YN      -0.089600
      8 N           -3.1680    -1.9550     2.0370 n8         1 9YN      -0.873800
      9 NAI         -1.1190     0.2430     0.1700 ns         1 9YN      -0.552900
     10 CAJ         -0.2730     1.3970     0.2630 c5         1 9YN       0.083700
     11 CAK         -0.9490     2.7570     0.0770 c5         1 9YN       0.104100
     12 OAL         -1.8880     2.6340    -0.9540 oh         1 9YN      -0.573800
     13 CAM          0.2590     3.6080    -0.3200 c5         1 9YN       0.100100
     14 CAN          1.0040     4.1470     0.8880 c3         1 9YN       0.117400
     15 OAO          2.1880     4.7630     0.4470 oh         1 9YN      -0.584800
     16 OAP          1.0890     2.7420    -1.0970 os         1 9YN      -0.378600
     17 CAQ          0.7650     1.4120    -0.8670 c5         1 9YN       0.253800
     18 N9           1.9690     0.6760    -0.5320 na         1 9YN      -0.272000
     19 C8           3.1570     1.1540    -0.0510 cc         1 9YN       0.421700
     20 N7           4.0280     0.2140     0.1820 nd         1 9YN      -0.559100
     21 C5           3.3810    -0.9460    -0.1550 ca         1 9YN      -0.225200
     22 C4           2.0960    -0.6780    -0.6000 ca         1 9YN       0.451800
     23 C6           3.7560    -2.3020    -0.1310 ca         1 9YN       0.784200
     24 N6           4.9590    -2.7110     0.2710 nv         1 9YN      -0.952500
     25 N1           2.8550    -3.2090    -0.5310 nb         1 9YN      -0.829000
     26 C2           1.6530    -2.8030    -0.9300 ca         1 9YN       0.714900
     27 N3           1.1860    -1.5670    -0.9970 nb         1 9YN      -0.776000
     28 H1          -2.3060    -1.9460     0.1630 h1         1 9YN       0.070700
     29 H2          -4.7050    -0.1160     0.6000 hc         1 9YN       0.055700
     30 H3          -3.8210    -0.2920    -0.9080 hc         1 9YN       0.055700
     31 H4          -5.4100    -2.4920     0.4790 hc         1 9YN       0.038700
     32 H5          -6.0370    -0.8850    -2.0380 hc         1 9YN       0.034867
     33 H6          -7.0130    -2.1970    -1.3790 hc         1 9YN       0.034867
     34 H7          -6.8320    -0.6960    -0.4740 hc         1 9YN       0.034867
     35 H8          -3.5500    -3.4980    -0.8220 hc         1 9YN       0.034867
     36 H9          -5.0660    -3.7550    -1.6670 hc         1 9YN       0.034867
     37 H10         -3.9600    -2.4940    -2.2120 hc         1 9YN       0.034867
     38 H11         -3.7620    -1.3780     2.6210 hn         1 9YN       0.349800
     39 H12         -3.6920    -2.8000     1.8510 hn         1 9YN       0.349800
     40 H14         -0.9110    -0.4460    -0.5380 hn         1 9YN       0.347500
     41 H15          0.2460     1.4040     1.2280 h1         1 9YN       0.079700
     42 H16         -1.4020     3.1140     1.0070 h1         1 9YN       0.077700
     43 H17         -2.3490     3.4730    -1.0510 ho         1 9YN       0.410000
     44 H18         -0.0330     4.4450    -0.9620 h1         1 9YN       0.090700
     45 H19          0.3370     4.8540     1.3990 h1         1 9YN       0.028700
     46 H20          1.2140     3.3400     1.6030 h1         1 9YN       0.028700
     47 H21          2.6760     5.0600     1.2200 ho         1 9YN       0.409000
     48 H22          0.3600     0.9480    -1.7760 h2         1 9YN       0.103700
     49 H23          3.3270     2.2110     0.0930 h5         1 9YN       0.083800
     50 H24          5.6540    -2.0550     0.5790 hn         1 9YN       0.452800
     51 H25          5.1870    -3.6900     0.2800 hn         1 9YN       0.452800
     52 H26          0.9720    -3.5890    -1.2380 h5         1 9YN       0.044100
@<TRIPOS>BOND
     1     1     2 2   
     2     2     3 1   
     3     2     9 1   
     4     3     4 1   
     5     3     8 1   
     6     3    28 1   
     7     4     5 1   
     8     4    29 1   
     9     4    30 1   
    10     5     6 1   
    11     5     7 1   
    12     5    31 1   
    13     6    32 1   
    14     6    33 1   
    15     6    34 1   
    16     7    35 1   
    17     7    36 1   
    18     7    37 1   
    19     8    38 1   
    20     8    39 1   
    21     9    10 1   
    22     9    40 1   
    23    10    11 1   
    24    10    17 1   
    25    10    41 1   
    26    11    12 1   
    27    11    13 1   
    28    11    42 1   
    29    12    43 1   
    30    13    14 1   
    31    13    16 1   
    32    13    44 1   
    33    14    15 1   
    34    14    45 1   
    35    14    46 1   
    36    15    47 1   
    37    16    17 1   
    38    17    18 1   
    39    17    48 1   
    40    18    19 1   
    41    18    22 1   
    42    19    20 2   
    43    19    49 1   
    44    20    21 1   
    45    21    22 ar  
    46    21    23 ar  
    47    22    27 ar  
    48    23    24 1   
    49    23    25 ar  
    50    24    50 1   
    51    24    51 1   
    52    25    26 ar  
    53    26    27 ar  
    54    26    52 1   
@<TRIPOS>SUBSTRUCTURE
     1 9YN         1 TEMP              0 ****  ****    0 ROOT
