@<TRIPOS>MOLECULE
9YO
   44    47     1     0     0
SMALL
bcc


@<TRIPOS>ATOM
      1 C1           2.7260    -0.6830     0.2740 ca         1 9YO      -0.287500
      2 C2           4.9380     0.1960    -0.0610 ca         1 9YO      -0.148000
      3 C3          -3.2450    -0.0590    -0.9500 c5         1 9YO       0.175700
      4 C4          -4.4120    -1.7150    -0.0910 c2         1 9YO       0.581200
      5 C5          -1.0410     5.1800    -0.8430 c3         1 9YO      -0.043800
      6 O18          1.0050    -2.3270     1.4420 o          1 9YO      -0.590300
      7 S19          1.3660    -0.9280     1.3850 sy         1 9YO       1.336300
      8 O8           1.6650    -0.2030     2.6020 o          1 9YO      -0.590300
      9 C12          3.8360     0.0030     0.7550 ca         1 9YO      -0.028000
     10 C26          2.7270    -1.1850    -1.0270 ca         1 9YO       0.118400
     11 CL9          1.3750    -2.0320    -1.6730 cl         1 9YO      -0.062400
     12 C20          3.8300    -0.9880    -1.8400 ca         1 9YO      -0.143000
     13 C17          4.9320    -0.3000    -1.3560 ca         1 9YO      -0.062000
     14 N14          0.0950    -0.1470     0.6370 na         1 9YO      -0.222900
     15 C24         -1.0690    -0.7640     0.1760 cc         1 9YO      -0.042100
     16 C15          0.0180     1.2180     0.3750 ca         1 9YO      -0.023200
     17 C7           0.9040     2.2570     0.6290 ca         1 9YO      -0.131000
     18 C25         -1.2100     1.4360    -0.2670 ca         1 9YO      -0.072800
     19 C23         -1.5560     2.7250    -0.6740 ca         1 9YO      -0.091000
     20 C16         -0.6860     3.7780    -0.4380 ca         1 9YO      -0.093300
     21 C13          0.5340     3.5230     0.2110 ca         1 9YO      -0.110000
     22 C11         -1.8850     0.1670    -0.3670 cd         1 9YO      -0.114400
     23 N6          -3.5480    -1.4870    -1.0090 n2         1 9YO      -0.642900
     24 C10         -4.3630     0.5520    -0.0670 c5         1 9YO       0.161800
     25 N21         -4.8060    -0.6310     0.6460 nu         1 9YO      -0.849200
     26 C22         -4.9590    -3.0620     0.2250 c3         1 9YO      -0.130400
     27 H1           5.7960     0.7320     0.3180 ha         1 9YO       0.143000
     28 H2          -3.2690     0.3750    -1.9540 h1         1 9YO       0.078700
     29 H3          -1.3970     5.7580     0.0120 hc         1 9YO       0.040700
     30 H4          -0.1800     5.7100    -1.2510 hc         1 9YO       0.040700
     31 H5          -1.8290     5.1910    -1.5960 hc         1 9YO       0.040700
     32 H6           3.8410     0.3900     1.7640 ha         1 9YO       0.164000
     33 H7           3.8260    -1.3730    -2.8510 ha         1 9YO       0.153000
     34 H8           5.7870    -0.1520    -2.0010 ha         1 9YO       0.141000
     35 H9          -1.2100    -1.8260     0.2790 h4         1 9YO       0.202000
     36 H11          1.8490     2.1120     1.1330 ha         1 9YO       0.142000
     37 H12         -2.4990     2.9050    -1.1770 ha         1 9YO       0.131000
     38 H13          1.2120     4.3470     0.3960 ha         1 9YO       0.130000
     39 H15         -4.0010     1.3270     0.6080 h1         1 9YO       0.051200
     40 H16         -6.0390    -3.0840     0.0690 hc         1 9YO       0.059367
     41 H17         -4.5000    -3.8200    -0.4040 hc         1 9YO       0.059367
     42 H18         -4.7780    -3.3110     1.2710 hc         1 9YO       0.059367
     43 H10         -5.1650     0.9800    -0.6780 h1         1 9YO       0.051200
     44 H14         -5.7190    -0.6350     1.0750 hn         1 9YO       0.417800
@<TRIPOS>BOND
     1     1     7 1   
     2     1     9 ar  
     3     1    10 ar  
     4     2     9 ar  
     5     2    13 ar  
     6     2    27 1   
     7     3    22 1   
     8     3    23 1   
     9     3    24 1   
    10     3    28 1   
    11     4    23 2   
    12     4    25 1   
    13     4    26 1   
    14     5    20 1   
    15     5    29 1   
    16     5    30 1   
    17     5    31 1   
    18     6     7 2   
    19     7     8 2   
    20     7    14 1   
    21     9    32 1   
    22    10    11 1   
    23    10    12 ar  
    24    12    13 ar  
    25    12    33 1   
    26    13    34 1   
    27    14    15 1   
    28    14    16 1   
    29    15    22 2   
    30    15    35 1   
    31    16    17 ar  
    32    16    18 ar  
    33    17    21 ar  
    34    17    36 1   
    35    18    19 ar  
    36    18    22 1   
    37    19    20 ar  
    38    19    37 1   
    39    20    21 ar  
    40    21    38 1   
    41    24    25 1   
    42    24    39 1   
    43    24    43 1   
    44    25    44 1   
    45    26    40 1   
    46    26    41 1   
    47    26    42 1   
@<TRIPOS>SUBSTRUCTURE
     1 9YO         1 TEMP              0 ****  ****    0 ROOT
