@<TRIPOS>MOLECULE
9YO
   44    47     1     0     0
SMALL
No Charge or Current Charge


@<TRIPOS>ATOM
      1 C1           2.4330    -0.7020     0.6480 ca         1 9YO      -0.287500
      2 C2           4.6550    -0.2680    -0.2770 ca         1 9YO      -0.130000
      3 C3          -3.5680     0.4450    -0.1600 c5         1 9YO       0.175700
      4 C4          -3.8550    -1.6750    -0.6820 c2         1 9YO       0.581200
      5 C5          -0.8200     5.3990    -1.5340 c3         1 9YO      -0.043800
      6 O18          0.6660    -1.7000     2.4160 o          1 9YO      -0.519500
      7 S19          1.2070    -0.4150     1.9450 sy         1 9YO       1.194700
      8 O8           1.7800     0.5750     2.8700 o          1 9YO      -0.519500
      9 C12          3.6950    -0.0660     0.7280 ca         1 9YO      -0.010000
     10 C26          2.1500    -1.5400    -0.4550 ca         1 9YO       0.210000
     11 Cl9          0.6070    -2.3720    -0.6550 cl         1 9YO      -0.154000
     12 C20          3.1200    -1.7330    -1.4540 ca         1 9YO      -0.125000
     13 C17          4.3700    -1.1010    -1.3690 ca         1 9YO      -0.044000
     14 N14         -0.1130     0.4040     1.1200 na         1 9YO      -0.222900
     15 C24         -1.3960    -0.1750     0.9400 cc         1 9YO      -0.092100
     16 C15         -0.0960     1.6690     0.5290 ca         1 9YO      -0.023200
     17 C7           0.9460     2.6070     0.4450 ca         1 9YO      -0.113000
     18 C25         -1.3150     1.9290    -0.0360 ca         1 9YO      -0.072800
     19 C23         -1.5980     3.1210    -0.7140 ca         1 9YO      -0.073000
     20 C16         -0.5690     4.0840    -0.8120 ca         1 9YO      -0.093300
     21 C13          0.6970     3.8220    -0.2300 ca         1 9YO      -0.092000
     22 C11         -2.1230     0.7680     0.2230 cd         1 9YO      -0.114400
     23 N6          -3.4410    -0.5910    -1.2190 n2         1 9YO      -0.642900
     24 C10         -4.3780    -0.2230     0.9980 c5         1 9YO       0.161800
     25 N21         -4.2350    -1.6540     0.6400 nu         1 9YO      -0.904400
     26 C22         -3.8880    -3.0170    -1.3640 c3         1 9YO      -0.130400
     27 H1           5.6230     0.2230    -0.2080 ha         1 9YO       0.125000
     28 H2          -4.0690     1.3490    -0.5320 h1         1 9YO       0.078700
     29 H3          -1.1450     6.1750    -0.8300 hc         1 9YO       0.040700
     30 H4           0.0870     5.7590    -2.0340 hc         1 9YO       0.040700
     31 H5          -1.5980     5.2940    -2.3000 hc         1 9YO       0.040700
     32 H6           3.9440     0.5860     1.5650 ha         1 9YO       0.146000
     33 H7           2.8980    -2.3780    -2.3010 ha         1 9YO       0.135000
     34 H8           5.1150    -1.2560    -2.1470 ha         1 9YO       0.123000
     35 H9          -1.6640    -1.1630     1.3040 h4         1 9YO       0.252000
     36 H11          1.9210     2.4150     0.8840 ha         1 9YO       0.124000
     37 H12         -2.5780     3.2950    -1.1520 ha         1 9YO       0.113000
     38 H13          1.4900     4.5630    -0.3030 ha         1 9YO       0.112000
     39 H15         -3.9820     0.0250     1.9930 h1         1 9YO       0.051200
     40 H16         -4.9140    -3.3960    -1.4300 hc         1 9YO       0.059367
     41 H17         -3.4890    -2.9520    -2.3820 hc         1 9YO       0.059367
     42 H18         -3.2860    -3.7490    -0.8150 hc         1 9YO       0.059367
     43 H10         -5.4290     0.0960     0.9610 h1         1 9YO       0.051200
     44 H14         -4.9590    -2.3260     0.8940 hn         1 9YO       0.473000
@<TRIPOS>BOND
     1     1     7 1   
     2     1     9 ar  
     3     1    10 ar  
     4     2     9 ar  
     5     2    13 ar  
     6     2    27 1   
     7     3    22 1   
     8     3    23 1   
     9     3    24 1   
    10     3    28 1   
    11     4    23 2   
    12     4    25 1   
    13     4    26 1   
    14     5    20 1   
    15     5    29 1   
    16     5    30 1   
    17     5    31 1   
    18     6     7 2   
    19     7     8 2   
    20     7    14 1   
    21     9    32 1   
    22    10    11 1   
    23    10    12 ar  
    24    12    13 ar  
    25    12    33 1   
    26    13    34 1   
    27    14    15 1   
    28    14    16 1   
    29    15    22 2   
    30    15    35 1   
    31    16    17 ar  
    32    16    18 ar  
    33    17    21 ar  
    34    17    36 1   
    35    18    19 ar  
    36    18    22 1   
    37    19    20 ar  
    38    19    37 1   
    39    20    21 ar  
    40    21    38 1   
    41    24    25 1   
    42    24    39 1   
    43    24    43 1   
    44    25    44 1   
    45    26    40 1   
    46    26    41 1   
    47    26    42 1   
@<TRIPOS>SUBSTRUCTURE
     1 9YO         1 TEMP              0 ****  ****    0 ROOT
