@<TRIPOS>MOLECULE
9YQ
   69    73     1     0     0
SMALL
No Charge or Current Charge


@<TRIPOS>ATOM
      1 C4          -7.2230     0.6700    -0.2470 ca         1 9YQ       0.308000
      2 C5          -6.8680     2.1810     1.7000 c3         1 9YQ       0.201100
      3 C6          -5.1940     0.5170     0.9340 ca         1 9YQ       0.388900
      4 N1          -4.0610     1.1690     0.6130 nb         1 9YQ      -0.294000
      5 C7          -2.9090     0.5020     0.7420 ca         1 9YQ       0.403900
      6 C8          -0.4130     0.9540     0.3030 ca         1 9YQ       0.289000
      7 N2          -1.7790     1.2430     0.4260 nu         1 9YQ      -0.923900
      8 C9           0.5140     1.9950     0.4800 ca         1 9YQ      -0.123500
      9 C10          1.8940     1.7560     0.3540 ca         1 9YQ      -0.123000
     10 C11          2.3750     0.4720     0.0420 ca         1 9YQ      -0.044000
     11 C12          4.5890    -0.8160    -0.2440 c          1 9YQ       0.628700
     12 N3           3.7850     0.3060    -0.0730 ns         1 9YQ      -0.143000
     13 C13          6.0810    -0.5510    -0.3500 ca         1 9YQ      -0.191600
     14 C14          6.9700    -1.6360    -0.5170 ca         1 9YQ      -0.041500
     15 C15          8.3560    -1.4270    -0.6190 ca         1 9YQ      -0.166000
     16 O2          -8.3450    -2.5220     1.0080 o          1 9YQ      -0.551000
     17 C27         -7.5030    -1.6470     0.8300 c          1 9YQ       0.590600
     18 C3          -7.7360    -0.6390    -0.2760 ca         1 9YQ      -0.155600
     19 C2          -8.5670    -1.0110    -1.3610 ca         1 9YQ      -0.045000
     20 N6          -6.3540    -1.5960     1.6810 n          1 9YQ      -0.292000
     21 C26         -6.2850    -2.5980     2.7740 c3         1 9YQ       0.090300
     22 C25         -5.1600    -0.7970     1.4560 ca         1 9YQ      -0.114400
     23 N           -6.4320     1.0970     0.7940 na         1 9YQ      -0.781100
     24 C28         -7.5030     1.5700    -1.2890 ca         1 9YQ      -0.153000
     25 C29         -8.3120     1.1840    -2.3680 ca         1 9YQ      -0.072000
     26 C1          -8.8540    -0.1110    -2.4040 ca         1 9YQ      -0.096300
     27 C           -9.7370    -0.5410    -3.5660 c3         1 9YQ      -0.043800
     28 C24         -3.8910    -1.4170     1.4890 ca         1 9YQ       0.136900
     29 N5          -2.7630    -0.7640     1.1610 nb         1 9YQ      -0.230000
     30 C23          0.0640    -0.3280    -0.0310 ca         1 9YQ      -0.123500
     31 C22          1.4450    -0.5710    -0.1590 ca         1 9YQ      -0.123000
     32 O1           4.1470    -1.9590    -0.3000 o          1 9YQ      -0.577100
     33 C21          6.6230     0.7560    -0.2870 ca         1 9YQ      -0.041500
     34 C20          8.0100     0.9580    -0.3900 ca         1 9YQ      -0.166000
     35 C16          8.8910    -0.1240    -0.5600 ca         1 9YQ       0.011000
     36 C17         11.3880    -0.6340    -0.8990 c          1 9YQ       0.610100
     37 O           11.3380    -1.8350    -1.1340 o          1 9YQ      -0.559100
     38 C18         12.7240     0.1240    -0.9000 c3         1 9YQ      -0.161400
     39 C19         13.5640    -0.1920     0.3580 c3         1 9YQ      -0.079100
     40 H1          -7.9640     2.2520     1.7060 h1         1 9YQ       0.046367
     41 H2          -6.5220     1.9780     2.7220 h1         1 9YQ       0.046367
     42 H3          -6.4500     3.1390     1.3650 h1         1 9YQ       0.046367
     43 H4          -1.9960     2.2340     0.3310 hn         1 9YQ       0.507000
     44 H5           0.1660     2.9950     0.7260 ha         1 9YQ       0.131000
     45 H6           2.5920     2.5780     0.5040 ha         1 9YQ       0.129000
     46 H7           4.2970     1.1750    -0.0230 hn         1 9YQ       0.150000
     47 H8           6.5900    -2.6550    -0.5670 ha         1 9YQ       0.125000
     48 H9           8.9950    -2.2950    -0.7390 ha         1 9YQ       0.133000
     49 H10         10.5020     1.1410    -0.5020 hn         1 9YQ       0.149000
     50 H11         -8.9900    -2.0130    -1.4020 ha         1 9YQ       0.134000
     51 H12         -7.2380    -2.6320     3.3170 h1         1 9YQ       0.047367
     52 H13         -6.0710    -3.5900     2.3540 h1         1 9YQ       0.047367
     53 H14         -5.4960    -2.3310     3.4880 h1         1 9YQ       0.047367
     54 H15         -7.0890     2.5740    -1.2610 ha         1 9YQ       0.121000
     55 H16         -8.5200     1.8910    -3.1680 ha         1 9YQ       0.115000
     56 H17         -9.1490    -1.0600    -4.3320 hc         1 9YQ       0.044700
     57 H18        -10.5300    -1.2220    -3.2330 hc         1 9YQ       0.044700
     58 H19        -10.2230     0.3190    -4.0420 hc         1 9YQ       0.044700
     59 H20         -3.7690    -2.4570     1.7860 h4         1 9YQ       0.032100
     60 H21         -0.6280    -1.1420    -0.2170 ha         1 9YQ       0.131000
     61 H22          1.7650    -1.5730    -0.4280 ha         1 9YQ       0.129000
     62 H23          5.9880     1.6290    -0.1590 ha         1 9YQ       0.125000
     63 H24          8.4020     1.9720    -0.3380 ha         1 9YQ       0.133000
     64 H25         13.3000    -0.1780    -1.7820 hc         1 9YQ       0.058700
     65 H26         12.5450     1.2060    -0.9290 hc         1 9YQ       0.058700
     66 H27         13.0240     0.0950     1.2690 hc         1 9YQ       0.045700
     67 H28         13.7930    -1.2640     0.4150 hc         1 9YQ       0.045700
     68 H29         14.5120     0.3580     0.3340 hc         1 9YQ       0.045700
     69 N4          10.2790     0.1650    -0.6520 ns         1 9YQ      -0.159000
@<TRIPOS>BOND
     1     1    18 ar  
     2     1    23 1   
     3     1    24 ar  
     4     2    23 1   
     5     2    40 1   
     6     2    41 1   
     7     2    42 1   
     8     3     4 ar  
     9     3    22 ar  
    10     3    23 1   
    11     4     5 ar  
    12     5     7 1   
    13     5    29 ar  
    14     6     7 1   
    15     6     8 ar  
    16     6    30 ar  
    17     7    43 1   
    18     8     9 ar  
    19     8    44 1   
    20     9    10 ar  
    21     9    45 1   
    22    10    12 1   
    23    10    31 ar  
    24    11    12 1   
    25    11    13 1   
    26    11    32 2   
    27    12    46 1   
    28    13    14 ar  
    29    13    33 ar  
    30    14    15 ar  
    31    14    47 1   
    32    15    35 ar  
    33    15    48 1   
    34    16    17 2   
    35    17    18 1   
    36    17    20 1   
    37    18    19 ar  
    38    19    26 ar  
    39    19    50 1   
    40    20    21 1   
    41    20    22 1   
    42    21    51 1   
    43    21    52 1   
    44    21    53 1   
    45    22    28 ar  
    46    24    25 ar  
    47    24    54 1   
    48    25    26 ar  
    49    25    55 1   
    50    26    27 1   
    51    27    56 1   
    52    27    57 1   
    53    27    58 1   
    54    28    29 ar  
    55    28    59 1   
    56    30    31 ar  
    57    30    60 1   
    58    31    61 1   
    59    33    34 ar  
    60    33    62 1   
    61    34    35 ar  
    62    34    63 1   
    63    35    69 1   
    64    36    37 2   
    65    36    38 1   
    66    36    69 1   
    67    38    39 1   
    68    38    64 1   
    69    38    65 1   
    70    39    66 1   
    71    39    67 1   
    72    39    68 1   
    73    49    69 1   
@<TRIPOS>SUBSTRUCTURE
     1 9YQ         1 TEMP              0 ****  ****    0 ROOT
