@<TRIPOS>MOLECULE
9YQ
   69    73     1     0     0
SMALL
abcg2


@<TRIPOS>ATOM
      1 C4          -7.2930     0.6530    -0.0520 ca         1 9YQ       0.308000
      2 C5          -6.2390     2.4150     1.2920 c3         1 9YQ       0.201100
      3 C6          -5.0980     0.3500     0.7750 ca         1 9YQ       0.388900
      4 N1          -4.0020     1.0560     0.6140 nb         1 9YQ      -0.294000
      5 C7          -2.8500     0.3970     0.4510 ca         1 9YQ       0.403900
      6 C8          -0.4030     0.9060     0.2310 ca         1 9YQ       0.289000
      7 N2          -1.7580     1.2010     0.3540 nu         1 9YQ      -0.923900
      8 C9           0.4880     1.9780     0.3390 ca         1 9YQ      -0.123500
      9 C10          1.8480     1.7870     0.2270 ca         1 9YQ      -0.123000
     10 C11          2.3820     0.5170     0.0040 ca         1 9YQ      -0.044000
     11 C12          4.5500    -0.6910    -0.2130 c          1 9YQ       0.628700
     12 N3           3.7750     0.4210    -0.0950 ns         1 9YQ      -0.143000
     13 C13          6.0130    -0.4170    -0.3070 ca         1 9YQ      -0.191600
     14 C14          6.8990    -1.3810     0.1630 ca         1 9YQ      -0.041500
     15 C15          8.2700    -1.2040     0.1100 ca         1 9YQ      -0.166000
     16 O2          -8.2600    -2.5490     1.1440 o          1 9YQ      -0.551000
     17 C27         -7.4040    -1.7480     0.8050 c          1 9YQ       0.590600
     18 C3          -7.7450    -0.6650    -0.1600 ca         1 9YQ      -0.155600
     19 C2          -8.6960    -0.9890    -1.1280 ca         1 9YQ      -0.045000
     20 N6          -6.1440    -1.8240     1.2940 n          1 9YQ      -0.292000
     21 C26         -5.8620    -2.8610     2.2780 c3         1 9YQ       0.090300
     22 C25         -5.0640    -1.0520     0.8300 ca         1 9YQ      -0.114400
     23 N           -6.3050     1.0230     0.8860 na         1 9YQ      -0.781100
     24 C28         -7.8420     1.6120    -0.9040 ca         1 9YQ      -0.153000
     25 C29         -8.7840     1.2660    -1.8530 ca         1 9YQ      -0.072000
     26 C1          -9.2170    -0.0480    -2.0010 ca         1 9YQ      -0.096300
     27 C          -10.2060    -0.4280    -3.0630 c3         1 9YQ      -0.043800
     28 C24         -3.8330    -1.6200     0.5720 ca         1 9YQ       0.136900
     29 N5          -2.7270    -0.9180     0.3680 nb         1 9YQ      -0.230000
     30 C23          0.1280    -0.3610    -0.0010 ca         1 9YQ      -0.123500
     31 C22          1.4980    -0.5530    -0.1110 ca         1 9YQ      -0.123000
     32 O1           4.1170    -1.8260    -0.2270 o          1 9YQ      -0.577100
     33 C21          6.5450     0.7370    -0.8780 ca         1 9YQ      -0.041500
     34 C20          7.9110     0.9220    -0.9510 ca         1 9YQ      -0.166000
     35 C16          8.7950    -0.0370    -0.4510 ca         1 9YQ       0.011000
     36 C17         11.2280    -0.4830    -0.0970 c          1 9YQ       0.610100
     37 O           11.1280    -1.5130     0.5240 o          1 9YQ      -0.559100
     38 C18         12.5640     0.1420    -0.4590 c3         1 9YQ      -0.161400
     39 C19         13.7360    -0.5040     0.2560 c3         1 9YQ      -0.079100
     40 H1          -7.2400     2.7480     1.5600 h1         1 9YQ       0.046367
     41 H2          -5.6090     2.4980     2.1730 h1         1 9YQ       0.046367
     42 H3          -5.8350     3.0830     0.5290 h1         1 9YQ       0.046367
     43 H4          -1.9820     2.1780     0.4510 hn         1 9YQ       0.507000
     44 H5           0.1180     2.9800     0.5210 ha         1 9YQ       0.131000
     45 H6           2.5010     2.6470     0.3210 ha         1 9YQ       0.129000
     46 H7           4.2630     1.2870     0.0570 hn         1 9YQ       0.150000
     47 H8           6.5100    -2.2960     0.5910 ha         1 9YQ       0.125000
     48 H9           8.9160    -1.9710     0.5020 ha         1 9YQ       0.133000
     49 H10         10.3780     1.0890    -1.0470 hn         1 9YQ       0.149000
     50 H11         -9.0420    -2.0130    -1.1850 ha         1 9YQ       0.134000
     51 H12         -6.6600    -2.9100     3.0140 h1         1 9YQ       0.047367
     52 H13         -5.7590    -3.8440     1.8190 h1         1 9YQ       0.047367
     53 H14         -4.9380    -2.6170     2.7940 h1         1 9YQ       0.047367
     54 H15         -7.5240     2.6430    -0.8390 ha         1 9YQ       0.121000
     55 H16         -9.1810     2.0380    -2.5020 ha         1 9YQ       0.115000
     56 H17         -9.7290    -0.4800    -4.0430 hc         1 9YQ       0.044700
     57 H18        -10.6480    -1.4040    -2.8660 hc         1 9YQ       0.044700
     58 H19        -11.0170     0.2960    -3.1360 hc         1 9YQ       0.044700
     59 H20         -3.7230    -2.6990     0.5600 h4         1 9YQ       0.032100
     60 H21         -0.5270    -1.2120    -0.0890 ha         1 9YQ       0.131000
     61 H22          1.8650    -1.5520    -0.2840 ha         1 9YQ       0.129000
     62 H23          5.9020     1.4970    -1.3060 ha         1 9YQ       0.125000
     63 H24          8.2960     1.8270    -1.4080 ha         1 9YQ       0.133000
     64 H25         12.6910     0.0580    -1.5440 hc         1 9YQ       0.058700
     65 H26         12.5350     1.2150    -0.2460 hc         1 9YQ       0.058700
     66 H27         13.6560    -0.3910     1.3350 hc         1 9YQ       0.045700
     67 H28         13.7980    -1.5690     0.0400 hc         1 9YQ       0.045700
     68 H29         14.6690    -0.0410    -0.0620 hc         1 9YQ       0.045700
     69 N4          10.1560     0.2350    -0.5620 ns         1 9YQ      -0.159000
@<TRIPOS>BOND
     1     1    18 ar  
     2     1    23 1   
     3     1    24 ar  
     4     2    23 1   
     5     2    40 1   
     6     2    41 1   
     7     2    42 1   
     8     3     4 ar  
     9     3    22 ar  
    10     3    23 1   
    11     4     5 ar  
    12     5     7 1   
    13     5    29 ar  
    14     6     7 1   
    15     6     8 ar  
    16     6    30 ar  
    17     7    43 1   
    18     8     9 ar  
    19     8    44 1   
    20     9    10 ar  
    21     9    45 1   
    22    10    12 1   
    23    10    31 ar  
    24    11    12 1   
    25    11    13 1   
    26    11    32 2   
    27    12    46 1   
    28    13    14 ar  
    29    13    33 ar  
    30    14    15 ar  
    31    14    47 1   
    32    15    35 ar  
    33    15    48 1   
    34    16    17 2   
    35    17    18 1   
    36    17    20 1   
    37    18    19 ar  
    38    19    26 ar  
    39    19    50 1   
    40    20    21 1   
    41    20    22 1   
    42    21    51 1   
    43    21    52 1   
    44    21    53 1   
    45    22    28 ar  
    46    24    25 ar  
    47    24    54 1   
    48    25    26 ar  
    49    25    55 1   
    50    26    27 1   
    51    27    56 1   
    52    27    57 1   
    53    27    58 1   
    54    28    29 ar  
    55    28    59 1   
    56    30    31 ar  
    57    30    60 1   
    58    31    61 1   
    59    33    34 ar  
    60    33    62 1   
    61    34    35 ar  
    62    34    63 1   
    63    35    69 1   
    64    36    37 2   
    65    36    38 1   
    66    36    69 1   
    67    38    39 1   
    68    38    64 1   
    69    38    65 1   
    70    39    66 1   
    71    39    67 1   
    72    39    68 1   
    73    49    69 1   
@<TRIPOS>SUBSTRUCTURE
     1 9YQ         1 TEMP              0 ****  ****    0 ROOT
