@<TRIPOS>MOLECULE
9YR
   18    18     1     0     0
SMALL
bcc


@<TRIPOS>ATOM
      1 C03         64.5970   106.3360    14.2840 cc         1 9YR      -0.148500
      2 C04         64.2840   105.8780    13.0260 cd         1 9YR      -0.039700
      3 C05         64.1020   106.6150    11.7690 c          1 9YR       0.670700
      4 C07         63.8200   106.3220     9.4470 c3         1 9YR       0.136700
      5 C10         64.3610   104.0700    14.6930 cd         1 9YR      -0.151100
      6 C11         64.6400   105.2880    15.2370 cc         1 9YR      -0.086000
      7 O01         63.6400   108.7150    14.7110 o          1 9YR      -0.685533
      8 O06         64.0230   105.7680    10.7460 os         1 9YR      -0.439900
      9 O08         64.0200   107.8100    11.6600 o          1 9YR      -0.476000
     10 O12         65.9480   108.5340    13.8410 o          1 9YR      -0.685533
     11 O13         65.4470   107.8940    16.1550 o          1 9YR      -0.685533
     12 S02         64.9390   108.0340    14.7810 s6         1 9YR       1.273100
     13 S09         64.0580   104.1690    13.0240 ss         1 9YR      -0.116800
     14 H1          63.7580   105.4770     8.7700 h1         1 9YR       0.037700
     15 H2          62.8950   106.8960     9.3990 h1         1 9YR       0.037700
     16 H3          64.6550   106.9590     9.1550 h1         1 9YR       0.037700
     17 H4          64.3250   103.1180    15.2020 h4         1 9YR       0.147000
     18 H5          64.8720   105.4350    16.2800 ha         1 9YR       0.173000
@<TRIPOS>BOND
     1     1     2 2   
     2     1     6 1   
     3     1    12 1   
     4     2     3 1   
     5     2    13 1   
     6     3     8 1   
     7     3     9 2   
     8     4     8 1   
     9     4    14 1   
    10     4    15 1   
    11     4    16 1   
    12     5     6 2   
    13     5    13 1   
    14     5    17 1   
    15     6    18 1   
    16     7    12 1   
    17    10    12 1   
    18    11    12 1   
@<TRIPOS>SUBSTRUCTURE
     1 9YR         1 TEMP              0 ****  ****    0 ROOT
