@<TRIPOS>MOLECULE
9YR
   18    18     1     0     0
SMALL
No Charge or Current Charge


@<TRIPOS>ATOM
      1 C03         64.6130   106.3140    14.3220 cc         1 9YR      -0.148500
      2 C04         64.3270   105.8180    13.0470 cd         1 9YR      -0.184600
      3 C05         64.1840   106.5810    11.7710 c          1 9YR       0.621700
      4 C07         63.7350   106.3740     9.4030 c3         1 9YR       0.159900
      5 C10         64.4340   104.0020    14.7880 cd         1 9YR      -0.278000
      6 C11         64.6650   105.2570    15.2800 cc         1 9YR      -0.068000
      7 O01         63.6360   108.7150    14.3740 o          1 9YR      -0.685533
      8 O06         63.8990   105.7680    10.6990 os         1 9YR      -0.463100
      9 O08         64.3000   107.7910    11.6530 o          1 9YR      -0.427000
     10 O12         66.0430   108.4420    13.9410 o          1 9YR      -0.685533
     11 O13         65.1510   108.0110    16.2450 o          1 9YR      -0.685533
     12 S02         64.8990   108.0890    14.7960 s6         1 9YR       1.273100
     13 S09         64.1280   104.0530    13.0540 ss         1 9YR       0.173000
     14 H1          63.5130   105.6070     8.6500 h1         1 9YR       0.037700
     15 H2          62.9070   107.0940     9.4100 h1         1 9YR       0.037700
     16 H3          64.6510   106.8960     9.0960 h1         1 9YR       0.037700
     17 H4          64.4230   103.0600    15.3220 h4         1 9YR       0.129000
     18 H5          64.8750   105.4460    16.3300 ha         1 9YR       0.155000
@<TRIPOS>BOND
     1     1     2 2   
     2     1     6 1   
     3     1    12 1   
     4     2     3 1   
     5     2    13 1   
     6     3     8 1   
     7     3     9 2   
     8     4     8 1   
     9     4    14 1   
    10     4    15 1   
    11     4    16 1   
    12     5     6 2   
    13     5    13 1   
    14     5    17 1   
    15     6    18 1   
    16     7    12 1   
    17    10    12 1   
    18    11    12 1   
@<TRIPOS>SUBSTRUCTURE
     1 9YR         1 TEMP              0 ****  ****    0 ROOT
