@<TRIPOS>MOLECULE
9YS
   54    57     1     0     0
SMALL
bcc


@<TRIPOS>ATOM
      1 C13         -3.2250     1.1090     1.4010 c3         1 9YS       0.244500
      2 C18         -4.4660     2.6560    -1.2310 ca         1 9YS      -0.120000
      3 C17         -4.6930     1.4240    -0.6180 ca         1 9YS      -0.086300
      4 C15         -3.1430     1.2080     2.9180 c3         1 9YS       0.116400
      5 C19         -4.4580     2.7750    -2.6140 ca         1 9YS      -0.128000
      6 C20         -4.6780     1.6580    -3.4100 ca         1 9YS      -0.126000
      7 C21         -4.9060     0.4250    -2.8120 ca         1 9YS      -0.128000
      8 C22         -4.9120     0.3120    -1.4270 ca         1 9YS      -0.120000
      9 C23          3.2310     1.0920     0.4710 ca         1 9YS       0.191600
     10 C24          3.9510     0.0070    -0.0230 ca         1 9YS      -0.126000
     11 C12         -2.5300    -5.1700    -0.4870 c3         1 9YS       0.097300
     12 C27          5.2810     2.3940     0.7030 ca         1 9YS      -0.039000
     13 C1          -1.0560    -1.7580     0.2080 ca         1 9YS      -0.406900
     14 C2           0.2890    -1.9470    -0.0680 ca         1 9YS       0.514200
     15 N3           1.2530    -1.0490     0.0510 nb         1 9YS      -0.781000
     16 C4           0.8960     0.1600     0.4870 ca         1 9YS       0.739200
     17 C5          -0.4180     0.4980     0.7950 ca         1 9YS      -0.442300
     18 C6          -1.4400    -0.4480     0.6530 ca         1 9YS       0.328600
     19 N7          -2.7200    -0.1510     0.9110 nu         1 9YS      -0.749600
     20 C9          -2.0510    -2.8460     0.0580 c          1 9YS       0.706700
     21 N10         -1.6230    -4.0570    -0.3320 ns         1 9YS      -0.566900
     22 O11         -3.2520    -2.6680     0.2880 o          1 9YS      -0.652100
     23 C14         -4.6550     1.3060     0.8790 c3         1 9YS      -0.038100
     24 O16         -3.9450     0.2000     3.4840 oh         1 9YS      -0.589800
     25 C25          5.3300     0.1450    -0.1400 ca         1 9YS      -0.021100
     26 C26          6.0170     1.3140     0.2120 ca         1 9YS       0.049400
     27 C28          3.9180     2.2760     0.8270 ca         1 9YS      -0.195000
     28 S29          6.4710    -1.0230    -0.7140 ss         1 9YS      -0.111100
     29 C30          7.7410     0.1320    -0.4340 cc         1 9YS       0.377100
     30 N31          7.3800     1.2720     0.0330 nd         1 9YS      -0.516100
     31 H1          -2.6210     1.9260     0.9950 h1         1 9YS       0.060700
     32 H2          -4.2970     3.5330    -0.6160 ha         1 9YS       0.132000
     33 H3          -2.0940     1.1090     3.2270 h1         1 9YS       0.025700
     34 H4          -3.4700     2.2120     3.2190 h1         1 9YS       0.025700
     35 H5          -4.2820     3.7410    -3.0700 ha         1 9YS       0.130000
     36 H6          -4.6750     1.7480    -4.4890 ha         1 9YS       0.129000
     37 H7          -5.0800    -0.4510    -3.4230 ha         1 9YS       0.130000
     38 H8          -5.0890    -0.6560    -0.9740 ha         1 9YS       0.132000
     39 H9           3.4520    -0.9050    -0.3070 ha         1 9YS       0.182000
     40 H10         -1.9580    -6.0260    -0.8320 h1         1 9YS       0.040367
     41 H11         -3.0130    -5.4370     0.4540 h1         1 9YS       0.040367
     42 H12         -3.3070    -4.9580    -1.2220 h1         1 9YS       0.040367
     43 H13          5.7790     3.3120     0.9870 ha         1 9YS       0.149000
     44 H14          0.6440    -2.9080    -0.4220 h4         1 9YS       0.002100
     45 H15         -0.6350     1.4980     1.1410 ha         1 9YS       0.135000
     46 H16         -3.3600    -0.9320     0.8240 hn         1 9YS       0.490800
     47 H17          1.5050     2.0030     0.9870 hn         1 9YS       0.437800
     48 H18         -0.6490    -4.2370    -0.4900 hn         1 9YS       0.315500
     49 H19         -5.2870     0.4780     1.2110 hc         1 9YS       0.063700
     50 H20         -5.0600     2.2120     1.3360 hc         1 9YS       0.063700
     51 H21         -3.8660     0.2540     4.4400 ho         1 9YS       0.406000
     52 H22          3.3530     3.1160     1.2120 ha         1 9YS       0.129000
     53 H23          8.7660    -0.1320    -0.6550 h5         1 9YS       0.056800
     54 N8           1.8570     1.1220     0.6480 nu         1 9YS      -0.743300
@<TRIPOS>BOND
     1     1     4 1   
     2     1    19 1   
     3     1    23 1   
     4     1    31 1   
     5     2     3 ar  
     6     2     5 ar  
     7     2    32 1   
     8     3     8 ar  
     9     3    23 1   
    10     4    24 1   
    11     4    33 1   
    12     4    34 1   
    13     5     6 ar  
    14     5    35 1   
    15     6     7 ar  
    16     6    36 1   
    17     7     8 ar  
    18     7    37 1   
    19     8    38 1   
    20     9    10 ar  
    21     9    27 ar  
    22     9    54 1   
    23    10    25 ar  
    24    10    39 1   
    25    11    21 1   
    26    11    40 1   
    27    11    41 1   
    28    11    42 1   
    29    12    26 ar  
    30    12    27 ar  
    31    12    43 1   
    32    13    14 ar  
    33    13    18 ar  
    34    13    20 1   
    35    14    15 ar  
    36    14    44 1   
    37    15    16 ar  
    38    16    17 ar  
    39    16    54 1   
    40    17    18 ar  
    41    17    45 1   
    42    18    19 1   
    43    19    46 1   
    44    20    21 1   
    45    20    22 2   
    46    21    48 1   
    47    23    49 1   
    48    23    50 1   
    49    24    51 1   
    50    25    26 ar  
    51    25    28 1   
    52    26    30 1   
    53    27    52 1   
    54    28    29 1   
    55    29    30 2   
    56    29    53 1   
    57    47    54 1   
@<TRIPOS>SUBSTRUCTURE
     1 9YS         1 TEMP              0 ****  ****    0 ROOT
