@<TRIPOS>MOLECULE
9YS
   54    57     1     0     0
SMALL
No Charge or Current Charge


@<TRIPOS>ATOM
      1 C13         -3.2950     0.9940     1.0810 c3         1 9YS       0.244500
      2 C18         -4.6610     2.9160    -1.1910 ca         1 9YS      -0.102000
      3 C17         -4.9340     1.5860    -0.8120 ca         1 9YS      -0.086300
      4 C15         -3.1540     0.7450     2.6200 c3         1 9YS       0.139600
      5 C19         -4.8090     3.3170    -2.5300 ca         1 9YS      -0.110000
      6 C20         -5.2330     2.3930    -3.4990 ca         1 9YS      -0.108000
      7 C21         -5.5080     1.0660    -3.1280 ca         1 9YS      -0.110000
      8 C22         -5.3600     0.6640    -1.7890 ca         1 9YS      -0.102000
      9 C23          3.3520     1.1150     0.4690 ca         1 9YS       0.330000
     10 C24          4.0700     0.1440    -0.2620 ca         1 9YS      -0.108000
     11 C12         -2.2420    -5.4070     0.3280 c3         1 9YS       0.097300
     12 C27          5.4680     2.2250     1.0240 ca         1 9YS      -0.021000
     13 C1          -0.9350    -1.7900     0.3460 ca         1 9YS      -0.341600
     14 C2           0.4370    -2.0540     0.4220 ca         1 9YS       0.448900
     15 N3           1.3780    -1.0980     0.4880 nb         1 9YS      -0.781000
     16 C4           0.9760     0.1650     0.4670 ca         1 9YS       0.673900
     17 C5          -0.3500     0.5460     0.4130 ca         1 9YS      -0.359000
     18 C6          -1.3220    -0.4450     0.3530 ca         1 9YS       0.467000
     19 N7          -2.6530    -0.0820     0.2970 nu         1 9YS      -0.943200
     20 C9          -1.9200    -2.9180     0.2610 c          1 9YS       0.639700
     21 N10         -1.4240    -4.1940     0.3960 ns         1 9YS      -0.499900
     22 O11         -3.1150    -2.7380     0.0650 o          1 9YS      -0.652100
     23 C14         -4.7740     1.1550     0.6440 c3         1 9YS      -0.038100
     24 O16         -3.7650    -0.4950     3.0300 oh         1 9YS      -0.652000
     25 C25          5.4710     0.2290    -0.3230 ca         1 9YS      -0.148000
     26 C26          6.1670     1.2420     0.3050 ca         1 9YS       0.049400
     27 C28          4.0600     2.1600     1.0980 ca         1 9YS      -0.177000
     28 S29          6.5300    -0.8810    -1.1750 ss         1 9YS       0.015800
     29 C30          7.8550     0.1480    -0.5850 cc         1 9YS       0.377100
     30 N31          7.5500     1.2170     0.1690 nd         1 9YS      -0.516100
     31 H1          -2.7930     1.9470     0.8640 h1         1 9YS       0.060700
     32 H2          -4.3340     3.6390    -0.4470 ha         1 9YS       0.114000
     33 H3          -2.0870     0.7420     2.8810 h1         1 9YS       0.025700
     34 H4          -3.6140     1.5860     3.1550 h1         1 9YS       0.025700
     35 H5          -4.5960     4.3450    -2.8160 ha         1 9YS       0.112000
     36 H6          -5.3470     2.7030    -4.5360 ha         1 9YS       0.111000
     37 H7          -5.8350     0.3480    -3.8780 ha         1 9YS       0.112000
     38 H8          -5.5730    -0.3670    -1.5130 ha         1 9YS       0.114000
     39 H9           3.5540    -0.6530    -0.7860 ha         1 9YS       0.164000
     40 H10         -1.6040    -6.2890     0.4690 h1         1 9YS       0.040367
     41 H11         -3.0050    -5.3830     1.1180 h1         1 9YS       0.040367
     42 H12         -2.7330    -5.4680    -0.6520 h1         1 9YS       0.040367
     43 H13          6.0080     3.0290     1.5170 ha         1 9YS       0.131000
     44 H14          0.8240    -3.0720     0.4250 h4         1 9YS       0.002100
     45 H15         -0.6180     1.5950     0.4040 ha         1 9YS       0.117000
     46 H16         -3.2290    -0.9280     0.2110 hn         1 9YS       0.546000
     47 H17          1.5690     2.0200     0.8220 hn         1 9YS       0.493000
     48 H18         -0.4310    -4.2960     0.5630 hn         1 9YS       0.315500
     49 H19         -5.3100     0.2160     0.8260 hc         1 9YS       0.063700
     50 H20         -5.2500     1.9000     1.2920 hc         1 9YS       0.063700
     51 H21         -3.6030    -0.5910     3.9940 ho         1 9YS       0.445000
     52 H22          3.5230     2.9230     1.6540 ha         1 9YS       0.111000
     53 H23          8.8670    -0.1230    -0.8560 h5         1 9YS       0.056800
     54 N8           1.9570     1.1190     0.5610 nu         1 9YS      -0.936900
@<TRIPOS>BOND
     1     1     4 1   
     2     1    19 1   
     3     1    23 1   
     4     1    31 1   
     5     2     3 ar  
     6     2     5 ar  
     7     2    32 1   
     8     3     8 ar  
     9     3    23 1   
    10     4    24 1   
    11     4    33 1   
    12     4    34 1   
    13     5     6 ar  
    14     5    35 1   
    15     6     7 ar  
    16     6    36 1   
    17     7     8 ar  
    18     7    37 1   
    19     8    38 1   
    20     9    10 ar  
    21     9    27 ar  
    22     9    54 1   
    23    10    25 ar  
    24    10    39 1   
    25    11    21 1   
    26    11    40 1   
    27    11    41 1   
    28    11    42 1   
    29    12    26 ar  
    30    12    27 ar  
    31    12    43 1   
    32    13    14 ar  
    33    13    18 ar  
    34    13    20 1   
    35    14    15 ar  
    36    14    44 1   
    37    15    16 ar  
    38    16    17 ar  
    39    16    54 1   
    40    17    18 ar  
    41    17    45 1   
    42    18    19 1   
    43    19    46 1   
    44    20    21 1   
    45    20    22 2   
    46    21    48 1   
    47    23    49 1   
    48    23    50 1   
    49    24    51 1   
    50    25    26 ar  
    51    25    28 1   
    52    26    30 1   
    53    27    52 1   
    54    28    29 1   
    55    29    30 2   
    56    29    53 1   
    57    47    54 1   
@<TRIPOS>SUBSTRUCTURE
     1 9YS         1 TEMP              0 ****  ****    0 ROOT
