@<TRIPOS>MOLECULE
9YT
   22    21     1     0     0
SMALL
No Charge or Current Charge


@<TRIPOS>ATOM
      1 C01         -4.2280     0.9690     0.8550 c3         1 9YT      -0.182100
      2 C02         -2.9890     0.0940     0.7030 c          1 9YT       0.596100
      3 O03         -2.7190    -0.8040     1.4860 o          1 9YT      -0.629100
      4 N04         -2.2050     0.3950    -0.3880 ns         1 9YT      -0.496900
      5 C05         -0.9510    -0.2840    -0.7360 c3         1 9YT       0.093000
      6 C06          0.2370     0.1970     0.1280 c3         1 9YT      -0.069400
      7 C07          1.6100    -0.3810    -0.3070 c3         1 9YT       0.015500
      8 N08          1.6220    -1.8840    -0.1770 n8         1 9YT      -1.001200
      9 C09          2.7870     0.3920     0.4210 c          1 9YT       0.693000
     10 O10          3.4680     1.1650    -0.2390 o          1 9YT      -0.733500
     11 O11          3.0450     0.1020     1.5830 o          1 9YT      -0.733500
     12 H013        -4.8150     0.9230    -0.0690 hc         1 9YT       0.049033
     13 H011        -4.8310     0.7020     1.7300 hc         1 9YT       0.049033
     14 H012        -3.9220     2.0210     0.8820 hc         1 9YT       0.049033
     15 H041        -2.5210     1.1550    -0.9780 hn         1 9YT       0.301500
     16 H051        -1.0860    -1.3670    -0.6180 h1         1 9YT       0.055200
     17 H052        -0.7350    -0.0850    -1.7940 h1         1 9YT       0.055200
     18 H062         0.2880     1.2910     0.0630 hc         1 9YT       0.042200
     19 H061         0.0510    -0.0450     1.1810 hc         1 9YT       0.042200
     20 H071         1.7230    -0.1620    -1.3780 h1         1 9YT       0.036700
     21 H082         2.5200    -2.2420    -0.5250 hn         1 9YT       0.383500
     22 H1           1.6530    -2.1180     0.8230 hn         1 9YT       0.383500
@<TRIPOS>BOND
     1     1     2 1   
     2     1    12 1   
     3     1    13 1   
     4     1    14 1   
     5     2     3 2   
     6     2     4 1   
     7     4     5 1   
     8     4    15 1   
     9     5     6 1   
    10     5    16 1   
    11     5    17 1   
    12     6     7 1   
    13     6    18 1   
    14     6    19 1   
    15     7     8 1   
    16     7     9 1   
    17     7    20 1   
    18     8    21 1   
    19     8    22 1   
    20     9    10 1   
    21     9    11 1   
@<TRIPOS>SUBSTRUCTURE
     1 9YT         1 TEMP              0 ****  ****    0 ROOT
