@<TRIPOS>MOLECULE
9YT
   22    21     1     0     0
SMALL
bcc


@<TRIPOS>ATOM
      1 C01         -4.3160     0.9650     0.6500 c3         1 9YT      -0.182100
      2 C02         -3.2440    -0.0450     0.3160 c          1 9YT       0.663100
      3 O03         -3.4620    -1.2500     0.3750 o          1 9YT      -0.629100
      4 N04         -2.0620     0.4750    -0.0450 ns         1 9YT      -0.563900
      5 C05         -0.8970    -0.2960    -0.4260 c3         1 9YT       0.093000
      6 C06          0.3720     0.2990     0.1640 c3         1 9YT      -0.069400
      7 C07          1.6330    -0.4250    -0.3090 c3         1 9YT       0.015500
      8 N08          1.5750    -1.8240     0.0890 n8         1 9YT      -0.890800
      9 C09          2.8830     0.3570     0.1690 c          1 9YT       0.903600
     10 O10          3.0570     1.4770    -0.3550 o          1 9YT      -0.838800
     11 O11          3.5990    -0.1740     1.0400 o          1 9YT      -0.838800
     12 H013        -5.1440     0.8560    -0.0520 hc         1 9YT       0.049033
     13 H011        -4.7090     0.7640     1.6460 hc         1 9YT       0.049033
     14 H012        -3.9720     1.9970     0.6160 hc         1 9YT       0.049033
     15 H041        -1.9820     1.4780    -0.1020 hn         1 9YT       0.301500
     16 H051        -1.0300    -1.3200    -0.0860 h1         1 9YT       0.055200
     17 H052        -0.8110    -0.3300    -1.5190 h1         1 9YT       0.055200
     18 H062         0.4490     1.3530    -0.1140 hc         1 9YT       0.042200
     19 H061         0.3120     0.2650     1.2580 hc         1 9YT       0.042200
     20 H071         1.6300    -0.3970    -1.4050 h1         1 9YT       0.036700
     21 H082         2.3450    -2.3180    -0.3450 hn         1 9YT       0.328300
     22 H1           1.7740    -1.8740     1.0820 hn         1 9YT       0.328300
@<TRIPOS>BOND
     1     1     2 1   
     2     1    12 1   
     3     1    13 1   
     4     1    14 1   
     5     2     3 2   
     6     2     4 1   
     7     4     5 1   
     8     4    15 1   
     9     5     6 1   
    10     5    16 1   
    11     5    17 1   
    12     6     7 1   
    13     6    18 1   
    14     6    19 1   
    15     7     8 1   
    16     7     9 1   
    17     7    20 1   
    18     8    21 1   
    19     8    22 1   
    20     9    10 1   
    21     9    11 1   
@<TRIPOS>SUBSTRUCTURE
     1 9YT         1 TEMP              0 ****  ****    0 ROOT
