@<TRIPOS>MOLECULE
9YU
   55    54     1     0     0
SMALL
No Charge or Current Charge


@<TRIPOS>ATOM
      1 C02         12.7990     5.5560   -13.1650 c3         1 9YU       0.158600
      2 C03         14.0340     6.4880   -13.2280 c3         1 9YU       0.156600
      3 C05         16.2200     6.7890   -12.2330 c3         1 9YU       0.157600
      4 C06         17.1590     6.1620   -11.1810 c3         1 9YU       0.151600
      5 C08         19.3500     6.5620   -10.1510 c3         1 9YU       0.128600
      6 C09         20.0470     5.2160   -10.5100 c3         1 9YU       0.127600
      7 C11         20.6890     5.8230   -12.8070 c3         1 9YU       0.137600
      8 C12         21.9040     5.6990   -13.7630 c3         1 9YU       0.152600
      9 C14         22.9600     7.8240   -14.4430 c3         1 9YU       0.148600
     10 C15         21.6660     8.6740   -14.4510 c3         1 9YU       0.126600
     11 C17         20.7030    10.5910   -15.6570 c3         1 9YU       0.167600
     12 C18         20.2680    11.4220   -14.4200 c3         1 9YU       0.124600
     13 C20         19.0220    11.2510   -12.3450 c3         1 9YU       0.158600
     14 C21         18.3520    10.1870   -11.4520 c3         1 9YU       0.148600
     15 C23         17.1410     9.9400    -9.3780 c3         1 9YU       0.147900
     16 O01         11.7860     5.9850   -14.0930 oh         1 9YU      -0.723000
     17 O04         15.0100     6.0110   -12.2820 os         1 9YU      -0.466000
     18 O07         18.3740     6.9380   -11.1500 os         1 9YU      -0.461000
     19 O10         21.1000     5.4120   -11.4840 os         1 9YU      -0.438000
     20 O13         22.8680     6.7440   -13.4820 os         1 9YU      -0.437000
     21 O16         21.8660     9.7750   -15.3640 os         1 9YU      -0.464000
     22 O19         19.5020    10.5890   -13.5290 os         1 9YU      -0.468000
     23 O22         17.7860    10.8360   -10.2980 os         1 9YU      -0.455000
     24 H1          12.4020     5.5610   -12.1400 h1         1 9YU       0.030200
     25 H2          13.1160     4.5300   -13.3960 h1         1 9YU       0.030200
     26 H3          14.4450     6.4790   -14.2460 h1         1 9YU       0.037200
     27 H4          13.7280     7.5140   -12.9850 h1         1 9YU       0.037200
     28 H5          16.7200     6.7910   -13.2100 h1         1 9YU       0.034700
     29 H6          16.0010     7.8280   -11.9510 h1         1 9YU       0.034700
     30 H7          16.6640     6.1760   -10.2000 h1         1 9YU       0.033200
     31 H8          17.3590     5.1200   -11.4590 h1         1 9YU       0.033200
     32 H9          18.8680     6.4630    -9.1690 h1         1 9YU       0.054700
     33 H10         20.1180     7.3400   -10.0570 h1         1 9YU       0.054700
     34 H11         19.3180     4.4760   -10.8630 h1         1 9YU       0.045200
     35 H12         20.4860     4.8130    -9.5890 h1         1 9YU       0.045200
     36 H13         20.3180     6.8550   -12.8080 h1         1 9YU       0.032200
     37 H14         19.8870     5.1700   -13.1760 h1         1 9YU       0.032200
     38 H15         21.5550     5.7480   -14.8030 h1         1 9YU       0.045200
     39 H16         22.3630     4.7120   -13.6210 h1         1 9YU       0.045200
     40 H17         23.1440     7.4300   -15.4510 h1         1 9YU       0.052700
     41 H18         23.8030     8.4770   -14.1840 h1         1 9YU       0.052700
     42 H19         21.4750     9.0350   -13.4320 h1         1 9YU       0.039200
     43 H20         20.8170     8.0580   -14.7750 h1         1 9YU       0.039200
     44 H21         19.8640     9.9750   -16.0060 h1         1 9YU       0.051200
     45 H22         20.9490    11.2920   -16.4650 h1         1 9YU       0.051200
     46 H23         21.1560    11.8280   -13.9180 h1         1 9YU       0.033200
     47 H24         19.6560    12.2670   -14.7630 h1         1 9YU       0.033200
     48 H25         19.8510    11.7160   -11.7940 h1         1 9YU       0.034700
     49 H26         18.2920    12.0280   -12.6050 h1         1 9YU       0.034700
     50 H27         17.5730     9.6690   -12.0270 h1         1 9YU       0.036700
     51 H28         19.1100     9.4520   -11.1490 h1         1 9YU       0.036700
     52 H29         16.7310    10.4970    -8.5260 h1         1 9YU       0.029700
     53 H30         16.3160     9.4060    -9.8670 h1         1 9YU       0.029700
     54 H31         17.8530     9.1980    -8.9920 h1         1 9YU       0.029700
     55 H32         11.0310     5.3560   -14.0050 ho         1 9YU       0.509000
@<TRIPOS>BOND
     1     1     2 1   
     2     1    16 1   
     3     1    24 1   
     4     1    25 1   
     5     2    17 1   
     6     2    26 1   
     7     2    27 1   
     8     3     4 1   
     9     3    17 1   
    10     3    28 1   
    11     3    29 1   
    12     4    18 1   
    13     4    30 1   
    14     4    31 1   
    15     5     6 1   
    16     5    18 1   
    17     5    32 1   
    18     5    33 1   
    19     6    19 1   
    20     6    34 1   
    21     6    35 1   
    22     7     8 1   
    23     7    19 1   
    24     7    36 1   
    25     7    37 1   
    26     8    20 1   
    27     8    38 1   
    28     8    39 1   
    29     9    10 1   
    30     9    20 1   
    31     9    40 1   
    32     9    41 1   
    33    10    21 1   
    34    10    42 1   
    35    10    43 1   
    36    11    12 1   
    37    11    21 1   
    38    11    44 1   
    39    11    45 1   
    40    12    22 1   
    41    12    46 1   
    42    12    47 1   
    43    13    14 1   
    44    13    22 1   
    45    13    48 1   
    46    13    49 1   
    47    14    23 1   
    48    14    50 1   
    49    14    51 1   
    50    15    23 1   
    51    15    52 1   
    52    15    53 1   
    53    15    54 1   
    54    16    55 1   
@<TRIPOS>SUBSTRUCTURE
     1 9YU         1 TEMP              0 ****  ****    0 ROOT
