@<TRIPOS>MOLECULE
9YU
   55    54     1     0     0
SMALL
abcg2


@<TRIPOS>ATOM
      1 C02         13.5320     5.8860   -13.5540 c3         1 9YU       0.158600
      2 C03         14.6160     6.8160   -13.0450 c3         1 9YU       0.156600
      3 C05         16.5680     6.8460   -11.7640 c3         1 9YU       0.157600
      4 C06         17.4400     5.9680   -10.8910 c3         1 9YU       0.151600
      5 C08         19.4990     6.0580    -9.7150 c3         1 9YU       0.128600
      6 C09         20.3310     5.0050   -10.4260 c3         1 9YU       0.127600
      7 C11         20.5750     5.6960   -12.6940 c3         1 9YU       0.137600
      8 C12         21.6370     5.6270   -13.7690 c3         1 9YU       0.152600
      9 C14         22.5430     7.6600   -14.6310 c3         1 9YU       0.148600
     10 C15         21.3670     8.6100   -14.4380 c3         1 9YU       0.126600
     11 C17         20.3950    10.4040   -15.6850 c3         1 9YU       0.167600
     12 C18         19.8550    11.3040   -14.5930 c3         1 9YU       0.124600
     13 C20         18.8060    11.2750   -12.4940 c3         1 9YU       0.158600
     14 C21         17.9710    10.3710   -11.6090 c3         1 9YU       0.148600
     15 C23         16.8790    10.3130    -9.5510 c3         1 9YU       0.147900
     16 O01         12.6820     6.6460   -14.3820 oh         1 9YU      -0.723000
     17 O04         15.4820     6.0810   -12.2180 os         1 9YU      -0.466000
     18 O07         18.5650     6.7300   -10.5270 os         1 9YU      -0.461000
     19 O10         21.1740     5.5110   -11.4320 os         1 9YU      -0.438000
     20 O13         22.6030     6.6500   -13.6550 os         1 9YU      -0.437000
     21 O16         21.5470     9.6780   -15.3390 os         1 9YU      -0.464000
     22 O19         19.1560    10.5430   -13.6400 os         1 9YU      -0.468000
     23 O22         17.6690    11.0690   -10.4300 os         1 9YU      -0.455000
     24 H1          12.9940     5.4540   -12.7010 h1         1 9YU       0.030200
     25 H2          13.9970     5.0540   -14.0990 h1         1 9YU       0.030200
     26 H3          15.1620     7.2480   -13.8960 h1         1 9YU       0.037200
     27 H4          14.1630     7.6520   -12.4930 h1         1 9YU       0.037200
     28 H5          17.1610     7.2250   -12.6100 h1         1 9YU       0.034700
     29 H6          16.2220     7.7210   -11.1960 h1         1 9YU       0.034700
     30 H7          16.8860     5.6400   -10.0010 h1         1 9YU       0.033200
     31 H8          17.7190     5.0670   -11.4510 h1         1 9YU       0.033200
     32 H9          19.0020     5.5780    -8.8600 h1         1 9YU       0.054700
     33 H10         20.1610     6.8280    -9.3120 h1         1 9YU       0.054700
     34 H11         19.6970     4.1990   -10.8200 h1         1 9YU       0.045200
     35 H12         20.9770     4.5480    -9.6700 h1         1 9YU       0.045200
     36 H13         20.0350     6.6490   -12.7480 h1         1 9YU       0.032200
     37 H14         19.8420     4.9030   -12.8990 h1         1 9YU       0.032200
     38 H15         21.1400     5.6480   -14.7470 h1         1 9YU       0.045200
     39 H16         22.1540     4.6630   -13.6970 h1         1 9YU       0.045200
     40 H17         22.5100     7.2340   -15.6430 h1         1 9YU       0.052700
     41 H18         23.4750     8.2260   -14.5480 h1         1 9YU       0.052700
     42 H19         21.3440     8.9540   -13.3970 h1         1 9YU       0.039200
     43 H20         20.4170     8.0940   -14.6330 h1         1 9YU       0.039200
     44 H21         19.5950     9.7370   -16.0360 h1         1 9YU       0.051200
     45 H22         20.6780    11.0370   -16.5290 h1         1 9YU       0.051200
     46 H23         20.6850    11.8570   -14.1300 h1         1 9YU       0.033200
     47 H24         19.1910    12.0500   -15.0520 h1         1 9YU       0.033200
     48 H25         19.7010    11.6100   -11.9510 h1         1 9YU       0.034700
     49 H26         18.2320    12.1740   -12.7580 h1         1 9YU       0.034700
     50 H27         17.0530    10.0760   -12.1400 h1         1 9YU       0.036700
     51 H28         18.5250     9.4470   -11.3900 h1         1 9YU       0.036700
     52 H29         16.7100    10.9040    -8.6520 h1         1 9YU       0.029700
     53 H30         15.9040    10.0610    -9.9880 h1         1 9YU       0.029700
     54 H31         17.3670     9.3740    -9.2640 h1         1 9YU       0.029700
     55 H32         11.9850     6.0710   -14.7050 ho         1 9YU       0.509000
@<TRIPOS>BOND
     1     1     2 1   
     2     1    16 1   
     3     1    24 1   
     4     1    25 1   
     5     2    17 1   
     6     2    26 1   
     7     2    27 1   
     8     3     4 1   
     9     3    17 1   
    10     3    28 1   
    11     3    29 1   
    12     4    18 1   
    13     4    30 1   
    14     4    31 1   
    15     5     6 1   
    16     5    18 1   
    17     5    32 1   
    18     5    33 1   
    19     6    19 1   
    20     6    34 1   
    21     6    35 1   
    22     7     8 1   
    23     7    19 1   
    24     7    36 1   
    25     7    37 1   
    26     8    20 1   
    27     8    38 1   
    28     8    39 1   
    29     9    10 1   
    30     9    20 1   
    31     9    40 1   
    32     9    41 1   
    33    10    21 1   
    34    10    42 1   
    35    10    43 1   
    36    11    12 1   
    37    11    21 1   
    38    11    44 1   
    39    11    45 1   
    40    12    22 1   
    41    12    46 1   
    42    12    47 1   
    43    13    14 1   
    44    13    22 1   
    45    13    48 1   
    46    13    49 1   
    47    14    23 1   
    48    14    50 1   
    49    14    51 1   
    50    15    23 1   
    51    15    52 1   
    52    15    53 1   
    53    15    54 1   
    54    16    55 1   
@<TRIPOS>SUBSTRUCTURE
     1 9YU         1 TEMP              0 ****  ****    0 ROOT
