@<TRIPOS>MOLECULE
9YV
   64    67     1     0     0
SMALL
No Charge or Current Charge


@<TRIPOS>ATOM
      1 C13         -3.7150     1.5590    -0.3440 ca         1 9YV      -0.188600
      2 C18         -7.4220     0.4450    -0.4450 c6         1 9YV       0.119700
      3 C16         -5.2190     1.7000    -0.4510 c          1 9YV       0.617700
      4 C15         -1.6830     0.2180    -0.0720 ca         1 9YV      -0.171500
      5 C20         -8.0480     0.7300     0.9420 c6         1 9YV      -0.093400
      6 C21         -7.7350    -0.3960     1.9570 c6         1 9YV       0.165800
      7 C23         -7.5710    -2.0510     0.1440 c6         1 9YV       0.165800
      8 C24         -7.8680    -0.9610    -0.9150 c6         1 9YV      -0.093400
      9 C11         -1.5060     2.6170    -0.3160 ca         1 9YV      -0.171500
     10 C12         -2.9050     2.7140    -0.4130 ca         1 9YV      -0.041000
     11 C34          8.1160     0.6970    -0.3400 ca         1 9YV      -0.088000
     12 C33          9.4740     0.4480    -0.0730 ca         1 9YV      -0.112000
     13 C1           3.3660    -1.4820    -0.9370 ca         1 9YV      -0.343600
     14 C2           2.0300    -1.5670    -1.3470 ca         1 9YV       0.445900
     15 N3           1.0980    -0.6460    -1.0470 nb         1 9YV      -0.777000
     16 C4           1.4730     0.3930    -0.3110 ca         1 9YV       0.673900
     17 C5           2.7660     0.5910     0.1330 ca         1 9YV      -0.352000
     18 C6           3.7280    -0.3600    -0.1820 ca         1 9YV       0.455000
     19 N7           5.0240    -0.1860     0.2640 nu         1 9YV      -0.954200
     20 N9           0.5070     1.3310    -0.0460 nu         1 9YV      -0.936900
     21 C10         -0.8830     1.3700    -0.1600 ca         1 9YV       0.341000
     22 C14         -3.0830     0.3050    -0.1670 ca         1 9YV      -0.041000
     23 N17         -5.9540     0.5370    -0.3940 ns         1 9YV      -0.505900
     24 O19         -5.7640     2.7880    -0.5800 o          1 9YV      -0.613100
     25 N22         -8.1910    -1.7190     1.4540 n3         1 9YV      -0.718600
     26 C25         -8.0050    -2.7940     2.4530 c3         1 9YV       0.154100
     27 N26          3.8960    -3.5930    -2.0550 nt         1 9YV      -0.598000
     28 O27          5.5100    -2.5470    -0.9820 o          1 9YV      -0.646100
     29 C28          5.7260     1.0880     0.4320 c3         1 9YV       0.275100
     30 C29          7.1950     0.8200     0.7200 ca         1 9YV      -0.117300
     31 C30          7.6470     0.6880     2.0480 ca         1 9YV      -0.088000
     32 C31          9.0050     0.4400     2.3140 ca         1 9YV      -0.112000
     33 C32          9.9190     0.3200     1.2530 ca         1 9YV      -0.096000
     34 H1          -7.7870     1.1920    -1.1660 h1         1 9YV       0.075700
     35 H2          -1.2270    -0.7530     0.0860 ha         1 9YV       0.132500
     36 H3          -7.6910     1.6920     1.3310 hc         1 9YV       0.059450
     37 H4          -9.1370     0.8260     0.8380 hc         1 9YV       0.059450
     38 H5          -6.6530    -0.4150     2.1570 h1         1 9YV       0.028700
     39 H6          -8.2340    -0.1590     2.9080 h1         1 9YV       0.028700
     40 H7          -7.9560    -3.0130    -0.2250 h1         1 9YV       0.028700
     41 H8          -6.4820    -2.1640     0.2570 h1         1 9YV       0.028700
     42 H9          -8.9460    -0.9490    -1.1220 hc         1 9YV       0.059450
     43 H10         -7.3760    -1.2170    -1.8630 hc         1 9YV       0.059450
     44 H11         -0.9060     3.5200    -0.3720 ha         1 9YV       0.132500
     45 H12         -3.3570     3.6960    -0.5420 ha         1 9YV       0.121500
     46 H13          7.7790     0.7920    -1.3700 ha         1 9YV       0.115000
     47 H14         10.1810     0.3540    -0.8950 ha         1 9YV       0.115500
     48 H15          1.6680    -2.4030    -1.9430 h4         1 9YV       0.009100
     49 H16          3.0120     1.4640     0.7240 ha         1 9YV       0.122000
     50 H17          5.6200    -0.9760    -0.0140 hn         1 9YV       0.540000
     51 H18          0.9190     2.2140     0.2350 hn         1 9YV       0.495000
     52 H19         -3.6590    -0.6150    -0.0930 ha         1 9YV       0.121500
     53 H20         -5.4300    -0.3200    -0.2920 hn         1 9YV       0.312500
     54 H22         -8.5280    -2.5500     3.3870 h1         1 9YV       0.030033
     55 H23         -8.4080    -3.7450     2.0790 h1         1 9YV       0.030033
     56 H24         -6.9400    -2.9370     2.6810 h1         1 9YV       0.030033
     57 H25          4.5490    -4.3200    -2.3090 hn         1 9YV       0.313500
     58 H26          2.9350    -3.6450    -2.3530 hn         1 9YV       0.313500
     59 H27          5.6390     1.6900    -0.4830 h1         1 9YV       0.046700
     60 H28          5.2850     1.6650     1.2570 h1         1 9YV       0.046700
     61 H29          6.9440     0.7770     2.8750 ha         1 9YV       0.115000
     62 H30          9.3480     0.3390     3.3410 ha         1 9YV       0.115500
     63 H31         10.9700     0.1270     1.4590 ha         1 9YV       0.115000
     64 C8           4.3370    -2.5580    -1.3140 c          1 9YV       0.641700
@<TRIPOS>BOND
     1     1     3 1   
     2     1    10 ar  
     3     1    22 ar  
     4     2     5 1   
     5     2     8 1   
     6     2    23 1   
     7     2    34 1   
     8     3    23 1   
     9     3    24 2   
    10     4    21 ar  
    11     4    22 ar  
    12     4    35 1   
    13     5     6 1   
    14     5    36 1   
    15     5    37 1   
    16     6    25 1   
    17     6    38 1   
    18     6    39 1   
    19     7     8 1   
    20     7    25 1   
    21     7    40 1   
    22     7    41 1   
    23     8    42 1   
    24     8    43 1   
    25     9    10 ar  
    26     9    21 ar  
    27     9    44 1   
    28    10    45 1   
    29    11    12 ar  
    30    11    30 ar  
    31    11    46 1   
    32    12    33 ar  
    33    12    47 1   
    34    13    14 ar  
    35    13    18 ar  
    36    13    64 1   
    37    14    15 ar  
    38    14    48 1   
    39    15    16 ar  
    40    16    17 ar  
    41    16    20 1   
    42    17    18 ar  
    43    17    49 1   
    44    18    19 1   
    45    19    29 1   
    46    19    50 1   
    47    20    21 1   
    48    20    51 1   
    49    22    52 1   
    50    23    53 1   
    51    25    26 1   
    52    26    54 1   
    53    26    55 1   
    54    26    56 1   
    55    27    57 1   
    56    27    58 1   
    57    27    64 1   
    58    28    64 2   
    59    29    30 1   
    60    29    59 1   
    61    29    60 1   
    62    30    31 ar  
    63    31    32 ar  
    64    31    61 1   
    65    32    33 ar  
    66    32    62 1   
    67    33    63 1   
@<TRIPOS>SUBSTRUCTURE
     1 9YV         1 TEMP              0 ****  ****    0 ROOT
