@<TRIPOS>MOLECULE
9YV
   64    67     1     0     0
SMALL
abcg2


@<TRIPOS>ATOM
      1 C13         -3.6050     1.3850    -0.2990 ca         1 9YV      -0.188600
      2 C18         -7.2830     0.4970    -0.4900 c6         1 9YV       0.119700
      3 C16         -5.0780     1.5820    -0.3900 c          1 9YV       0.617700
      4 C15         -1.5780     0.0910    -0.6440 ca         1 9YV      -0.171500
      5 C20         -7.9490     0.8700     0.8350 c6         1 9YV      -0.093400
      6 C21         -7.8080    -0.2390     1.8640 c6         1 9YV       0.165800
      7 C23         -7.6830    -1.9170     0.1580 c6         1 9YV       0.165800
      8 C24         -7.7940    -0.8690    -0.9410 c6         1 9YV      -0.093400
      9 C11         -1.4510     2.3040     0.2860 ca         1 9YV      -0.171500
     10 C12         -2.8200     2.4290     0.1920 ca         1 9YV      -0.041000
     11 C34          7.9830     1.3780    -0.3580 ca         1 9YV      -0.088000
     12 C33          9.3570     1.2780    -0.1820 ca         1 9YV      -0.112000
     13 C1           3.4230    -1.7210    -0.8730 ca         1 9YV      -0.343600
     14 C2           2.0680    -1.8710    -1.1160 ca         1 9YV       0.445900
     15 N3           1.1240    -0.9810    -0.8540 nb         1 9YV      -0.777000
     16 C4           1.5160     0.1670    -0.3050 ca         1 9YV       0.673900
     17 C5           2.8500     0.4660    -0.0350 ca         1 9YV      -0.352000
     18 C6           3.8460    -0.4700    -0.3240 ca         1 9YV       0.455000
     19 N7           5.1390    -0.2130    -0.0700 nu         1 9YV      -0.954200
     20 N9           0.5770     1.1170     0.0030 nu         1 9YV      -0.936900
     21 C10         -0.7990     1.1330    -0.1310 ca         1 9YV       0.341000
     22 C14         -2.9550     0.2270    -0.7170 ca         1 9YV      -0.041000
     23 N17         -5.8320     0.4690    -0.3850 ns         1 9YV      -0.505900
     24 O19         -5.5620     2.7060    -0.4680 o          1 9YV      -0.613100
     25 N22         -8.3570    -1.4860     1.3670 n3         1 9YV      -0.718600
     26 C25         -8.3370    -2.5170     2.3780 c3         1 9YV       0.154100
     27 N26          3.9010    -4.0350    -1.3430 nt         1 9YV      -0.598000
     28 O27          5.5890    -2.5570    -1.3740 o          1 9YV      -0.646100
     29 C28          5.6220     1.0510     0.4400 c3         1 9YV       0.275100
     30 C29          7.1090     0.9760     0.6470 ca         1 9YV      -0.117300
     31 C30          7.6320     0.4650     1.8330 ca         1 9YV      -0.088000
     32 C31          9.0040     0.3640     2.0120 ca         1 9YV      -0.112000
     33 C32          9.8700     0.7710     1.0040 ca         1 9YV      -0.096000
     34 H1          -7.5420     1.2410    -1.2450 h1         1 9YV       0.075700
     35 H2          -1.1130    -0.8160    -0.9920 ha         1 9YV       0.132500
     36 H3          -7.5310     1.7990     1.2250 hc         1 9YV       0.059450
     37 H4          -9.0110     1.0530     0.6480 hc         1 9YV       0.059450
     38 H5          -6.7460    -0.3500     2.1520 h1         1 9YV       0.028700
     39 H6          -8.3440     0.0400     2.7740 h1         1 9YV       0.028700
     40 H7          -8.1400    -2.8480    -0.1870 h1         1 9YV       0.028700
     41 H8          -6.6210    -2.1590     0.3550 h1         1 9YV       0.028700
     42 H9          -8.8440    -0.7620    -1.2230 hc         1 9YV       0.059450
     43 H10         -7.2560    -1.2030    -1.8310 hc         1 9YV       0.059450
     44 H11         -0.8710     3.1270     0.6860 ha         1 9YV       0.132500
     45 H12         -3.2860     3.3490     0.5170 ha         1 9YV       0.121500
     46 H13          7.5860     1.7750    -1.2850 ha         1 9YV       0.115000
     47 H14         10.0250     1.5990    -0.9710 ha         1 9YV       0.115500
     48 H15          1.7060    -2.7810    -1.5830 h4         1 9YV       0.009100
     49 H16          3.1070     1.4280     0.3870 ha         1 9YV       0.122000
     50 H17          5.8060    -0.8780    -0.4360 hn         1 9YV       0.540000
     51 H18          0.9590     1.9590     0.4070 hn         1 9YV       0.495000
     52 H19         -3.5140    -0.5980    -1.1420 ha         1 9YV       0.121500
     53 H20         -5.3890    -0.4140    -0.1850 hn         1 9YV       0.312500
     54 H22         -8.8910    -2.1890     3.2580 h1         1 9YV       0.030033
     55 H23         -8.8160    -3.4230     2.0010 h1         1 9YV       0.030033
     56 H24         -7.3200    -2.7880     2.7040 h1         1 9YV       0.030033
     57 H25          4.5360    -4.7870    -1.5590 hn         1 9YV       0.313500
     58 H26          2.9820    -4.2960    -1.0330 hn         1 9YV       0.313500
     59 H27          5.3830     1.8680    -0.2520 h1         1 9YV       0.046700
     60 H28          5.1280     1.2830     1.3880 h1         1 9YV       0.046700
     61 H29          6.9610     0.1510     2.6240 ha         1 9YV       0.115000
     62 H30          9.3990    -0.0300     2.9390 ha         1 9YV       0.115500
     63 H31         10.9410     0.6960     1.1450 ha         1 9YV       0.115000
     64 C8           4.3890    -2.7910    -1.2100 c          1 9YV       0.641700
@<TRIPOS>BOND
     1     1     3 1   
     2     1    10 ar  
     3     1    22 ar  
     4     2     5 1   
     5     2     8 1   
     6     2    23 1   
     7     2    34 1   
     8     3    23 1   
     9     3    24 2   
    10     4    21 ar  
    11     4    22 ar  
    12     4    35 1   
    13     5     6 1   
    14     5    36 1   
    15     5    37 1   
    16     6    25 1   
    17     6    38 1   
    18     6    39 1   
    19     7     8 1   
    20     7    25 1   
    21     7    40 1   
    22     7    41 1   
    23     8    42 1   
    24     8    43 1   
    25     9    10 ar  
    26     9    21 ar  
    27     9    44 1   
    28    10    45 1   
    29    11    12 ar  
    30    11    30 ar  
    31    11    46 1   
    32    12    33 ar  
    33    12    47 1   
    34    13    14 ar  
    35    13    18 ar  
    36    13    64 1   
    37    14    15 ar  
    38    14    48 1   
    39    15    16 ar  
    40    16    17 ar  
    41    16    20 1   
    42    17    18 ar  
    43    17    49 1   
    44    18    19 1   
    45    19    29 1   
    46    19    50 1   
    47    20    21 1   
    48    20    51 1   
    49    22    52 1   
    50    23    53 1   
    51    25    26 1   
    52    26    54 1   
    53    26    55 1   
    54    26    56 1   
    55    27    57 1   
    56    27    58 1   
    57    27    64 1   
    58    28    64 2   
    59    29    30 1   
    60    29    59 1   
    61    29    60 1   
    62    30    31 ar  
    63    31    32 ar  
    64    31    61 1   
    65    32    33 ar  
    66    32    62 1   
    67    33    63 1   
@<TRIPOS>SUBSTRUCTURE
     1 9YV         1 TEMP              0 ****  ****    0 ROOT
