@<TRIPOS>MOLECULE
9YW
   29    29     1     0     0
SMALL
abcg2


@<TRIPOS>ATOM
      1 C10         -3.4030     0.2790    -0.4120 c          1 9YW       0.725000
      2 C01          1.4770    -2.6490     0.2150 c3         1 9YW       0.170600
      3 C02          1.0130    -1.2250    -0.0050 c6         1 9YW       0.173300
      4 C03          2.1670    -0.3110    -0.4150 c6         1 9YW       0.148300
      5 C04          1.7030     1.1410    -0.4600 c6         1 9YW       0.135300
      6 C05          1.0430     1.5180     0.8600 c6         1 9YW       0.125300
      7 C06         -0.0760     0.5270     1.1840 c6         1 9YW       0.350300
      8 C09         -2.2590    -0.0610     0.5530 c3         1 9YW       0.005600
      9 O07          0.4500    -0.7740     1.2150 os         1 9YW      -0.479000
     10 O08         -1.0930     0.6800     0.2600 os         1 9YW      -0.428000
     11 O11         -4.4540    -0.3600    -0.1950 o          1 9YW      -0.722000
     12 O12         -3.2010     1.1270    -1.2940 o          1 9YW      -0.722000
     13 O13          0.5850     2.8420     0.7570 oh         1 9YW      -0.701000
     14 O14          2.8410     1.9310    -0.7230 oh         1 9YW      -0.691000
     15 O15          2.6380    -0.7400    -1.6700 oh         1 9YW      -0.720000
     16 O16          0.3550    -3.4570     0.4850 oh         1 9YW      -0.695000
     17 H1           2.0080    -2.9840    -0.6820 h1         1 9YW       0.019700
     18 H2           2.2000    -2.6660     1.0440 h1         1 9YW       0.019700
     19 H4           2.9590    -0.3920     0.3480 h1         1 9YW       0.030700
     20 H5           0.9660     1.2430    -1.2700 h1         1 9YW       0.094700
     21 H6           1.7930     1.4210     1.6580 h1         1 9YW       0.027700
     22 H7          -0.4480     0.6990     2.2060 h2         1 9YW       0.049700
     23 H8          -2.5920     0.1430     1.5820 h1         1 9YW       0.014200
     24 H9          -2.0660    -1.1400     0.5010 h1         1 9YW       0.014200
     25 H11          0.4010     3.1750     1.6400 ho         1 9YW       0.500000
     26 H12          2.5510     2.8310    -0.9040 ho         1 9YW       0.460000
     27 H13          3.3610    -0.1600    -1.9330 ho         1 9YW       0.511000
     28 H14          0.6560    -4.3670     0.5470 ho         1 9YW       0.486000
     29 H3           0.2600    -1.2230    -0.8060 h1         1 9YW       0.094700
@<TRIPOS>BOND
     1     1     8 1   
     2     1    11 1   
     3     1    12 1   
     4     2     3 1   
     5     2    16 1   
     6     2    17 1   
     7     2    18 1   
     8     3     4 1   
     9     3     9 1   
    10     3    29 1   
    11     4     5 1   
    12     4    15 1   
    13     4    19 1   
    14     5     6 1   
    15     5    14 1   
    16     5    20 1   
    17     6     7 1   
    18     6    13 1   
    19     6    21 1   
    20     7     9 1   
    21     7    10 1   
    22     7    22 1   
    23     8    10 1   
    24     8    23 1   
    25     8    24 1   
    26    13    25 1   
    27    14    26 1   
    28    15    27 1   
    29    16    28 1   
@<TRIPOS>SUBSTRUCTURE
     1 9YW         1 TEMP              0 ****  ****    0 ROOT
