@<TRIPOS>MOLECULE
9YW
   29    29     1     0     0
SMALL
No Charge or Current Charge


@<TRIPOS>ATOM
      1 C10         -3.4970     0.2590    -0.2930 c          1 9YW       0.725000
      2 C01          1.4190    -2.7500     0.0880 c3         1 9YW       0.170600
      3 C02          1.0340    -1.2370    -0.0340 c6         1 9YW       0.173300
      4 C03          2.2560    -0.3440    -0.4140 c6         1 9YW       0.148300
      5 C04          1.8080     1.1440    -0.4550 c6         1 9YW       0.135300
      6 C05          1.1700     1.5590     0.9040 c6         1 9YW       0.125300
      7 C06          0.0110     0.5680     1.2710 c6         1 9YW       0.350300
      8 C09         -2.3180     0.0090     0.7020 c3         1 9YW       0.005600
      9 O07          0.4790    -0.8000     1.2400 os         1 9YW      -0.479000
     10 O08         -1.1040     0.7320     0.3710 os         1 9YW      -0.428000
     11 O11         -4.5550    -0.3190    -0.0750 o          1 9YW      -0.722000
     12 O12         -3.3390     1.0150    -1.2440 o          1 9YW      -0.722000
     13 O13          0.7080     2.9290     0.8330 oh         1 9YW      -0.701000
     14 O14          2.9250     2.0030    -0.7700 oh         1 9YW      -0.691000
     15 O15          2.8290    -0.7060    -1.6840 oh         1 9YW      -0.720000
     16 O16          0.3220    -3.5940     0.4900 oh         1 9YW      -0.695000
     17 H1           1.8060    -3.0880    -0.8820 h1         1 9YW       0.019700
     18 H2           2.2400    -2.8360     0.8130 h1         1 9YW       0.019700
     19 H4           3.0170    -0.4540     0.3740 h1         1 9YW       0.030700
     20 H5           1.0320     1.2400    -1.2320 h1         1 9YW       0.094700
     21 H6           1.9400     1.4760     1.6850 h1         1 9YW       0.027700
     22 H7          -0.3270     0.8010     2.2920 h2         1 9YW       0.049700
     23 H8          -2.6630     0.2970     1.7040 h1         1 9YW       0.014200
     24 H9          -2.1220    -1.0720     0.7160 h1         1 9YW       0.014200
     25 H11         -0.2080     2.8890     0.4670 ho         1 9YW       0.500000
     26 H12          2.6690     2.8900    -0.4250 ho         1 9YW       0.460000
     27 H13          3.3550     0.0870    -1.9510 ho         1 9YW       0.511000
     28 H14          0.6860    -4.5010     0.6060 ho         1 9YW       0.486000
     29 H3           0.2620    -1.1490    -0.8130 h1         1 9YW       0.094700
@<TRIPOS>BOND
     1     1     8 1   
     2     1    11 1   
     3     1    12 1   
     4     2     3 1   
     5     2    16 1   
     6     2    17 1   
     7     2    18 1   
     8     3     4 1   
     9     3     9 1   
    10     3    29 1   
    11     4     5 1   
    12     4    15 1   
    13     4    19 1   
    14     5     6 1   
    15     5    14 1   
    16     5    20 1   
    17     6     7 1   
    18     6    13 1   
    19     6    21 1   
    20     7     9 1   
    21     7    10 1   
    22     7    22 1   
    23     8    10 1   
    24     8    23 1   
    25     8    24 1   
    26    13    25 1   
    27    14    26 1   
    28    15    27 1   
    29    16    28 1   
@<TRIPOS>SUBSTRUCTURE
     1 9YW         1 TEMP              0 ****  ****    0 ROOT
