@<TRIPOS>MOLECULE
9YY
   47    50     1     0     0
SMALL
No Charge or Current Charge


@<TRIPOS>ATOM
      1 C13          5.0900    -1.4340    -0.1350 ca         1 9YY      -0.114300
      2 C18          5.6540    -1.7800    -1.3790 ca         1 9YY      -0.090500
      3 C17          7.0500    -1.8620    -1.5270 ca         1 9YY      -0.111000
      4 C16          7.8910    -1.5980    -0.4320 ca         1 9YY      -0.098000
      5 C15          7.3340    -1.2500     0.8100 ca         1 9YY      -0.111000
      6 C19         -2.9780    -0.2820    -0.1610 ca         1 9YY       0.291000
      7 C20         -3.8410    -1.3350     0.2190 ca         1 9YY      -0.124000
      8 C21         -5.2270    -1.1280     0.1710 ca         1 9YY      -0.111300
      9 C22         -5.7400     0.0770    -0.2500 ca         1 9YY      -0.063000
     10 C23         -4.9290     1.1420    -0.6510 ca         1 9YY      -0.114000
     11 C24         -3.5310     0.9490    -0.6060 ca         1 9YY      -0.102000
     12 C12          3.5810    -1.3430     0.0260 c3         1 9YY       0.276100
     13 C1           1.7040     1.8840     0.3420 ca         1 9YY      -0.347600
     14 C2           0.3880     2.3170     0.5400 ca         1 9YY       0.447900
     15 N3          -0.6880     1.5280     0.3800 nb         1 9YY      -0.782000
     16 C4          -0.4820     0.2730     0.0030 ca         1 9YY       0.676900
     17 C5           0.7720    -0.2680    -0.2040 ca         1 9YY      -0.357000
     18 C6           1.8830     0.5480    -0.0350 ca         1 9YY       0.458000
     19 N7           3.1440     0.0270    -0.2490 nu         1 9YY      -0.957200
     20 C9           2.8440     2.8340     0.5390 c          1 9YY       0.640700
     21 N10          2.5720     4.0990     0.9150 nt         1 9YY      -0.596000
     22 O11          4.0120     2.5220     0.3740 o          1 9YY      -0.646100
     23 C14          5.9390    -1.1670     0.9590 ca         1 9YY      -0.090500
     24 C25         -6.3680    -2.0760     0.5270 c5         1 9YY      -0.120100
     25 C26         -7.6450    -1.2220     0.2430 c          1 9YY       0.564000
     26 N27         -7.1260    -0.0200    -0.1940 ns         1 9YY      -0.146000
     27 O28         -8.8310    -1.5070     0.3640 o          1 9YY      -0.532000
     28 H1           5.0100    -1.9830    -2.2320 ha         1 9YY       0.115500
     29 H2           7.4800    -2.1300    -2.4900 ha         1 9YY       0.115000
     30 H3           8.9710    -1.6620    -0.5470 ha         1 9YY       0.114000
     31 H4           7.9840    -1.0440     1.6580 ha         1 9YY       0.115000
     32 H5          -3.4420    -2.2890     0.5520 ha         1 9YY       0.113000
     33 H6          -5.3580     2.0820    -0.9910 ha         1 9YY       0.123000
     34 H7          -2.8810     1.7520    -0.9340 ha         1 9YY       0.156000
     35 H8           3.0920    -2.0480    -0.6610 h1         1 9YY       0.046200
     36 H9           3.3070    -1.6280     1.0510 h1         1 9YY       0.046200
     37 H10          0.1620     3.3390     0.8400 h4         1 9YY       0.009100
     38 H11          0.8770    -1.3040    -0.5050 ha         1 9YY       0.120000
     39 H12          3.8670     0.7470    -0.1190 hn         1 9YY       0.540000
     40 H13         -1.3500    -1.5010    -0.1210 hn         1 9YY       0.493000
     41 H14          1.6230     4.4020     1.0640 hn         1 9YY       0.312000
     42 H15          3.3390     4.7410     1.0480 hn         1 9YY       0.312000
     43 H16          5.5160    -0.8950     1.9240 ha         1 9YY       0.115500
     44 H17         -6.4040    -2.9840    -0.0830 hc         1 9YY       0.089200
     45 H18         -6.3770    -2.3930     1.5750 hc         1 9YY       0.089200
     46 H19         -7.7240     0.7520    -0.4600 hn         1 9YY       0.171000
     47 N8          -1.5970    -0.5160    -0.1240 nu         1 9YY      -0.936900
@<TRIPOS>BOND
     1     1     2 ar  
     2     1    12 1   
     3     1    23 ar  
     4     2     3 ar  
     5     2    28 1   
     6     3     4 ar  
     7     3    29 1   
     8     4     5 ar  
     9     4    30 1   
    10     5    23 ar  
    11     5    31 1   
    12     6     7 ar  
    13     6    11 ar  
    14     6    47 1   
    15     7     8 ar  
    16     7    32 1   
    17     8     9 ar  
    18     8    24 1   
    19     9    10 ar  
    20     9    26 1   
    21    10    11 ar  
    22    10    33 1   
    23    11    34 1   
    24    12    19 1   
    25    12    35 1   
    26    12    36 1   
    27    13    14 ar  
    28    13    18 ar  
    29    13    20 1   
    30    14    15 ar  
    31    14    37 1   
    32    15    16 ar  
    33    16    17 ar  
    34    16    47 1   
    35    17    18 ar  
    36    17    38 1   
    37    18    19 1   
    38    19    39 1   
    39    20    21 1   
    40    20    22 2   
    41    21    41 1   
    42    21    42 1   
    43    23    43 1   
    44    24    25 1   
    45    24    44 1   
    46    24    45 1   
    47    25    26 1   
    48    25    27 2   
    49    26    46 1   
    50    40    47 1   
@<TRIPOS>SUBSTRUCTURE
     1 9YY         1 TEMP              0 ****  ****    0 ROOT
