@<TRIPOS>MOLECULE
9YY
   47    50     1     0     0
SMALL
bcc


@<TRIPOS>ATOM
      1 C13          4.9550    -1.4680    -0.1720 ca         1 9YY      -0.114300
      2 C18          5.7010    -2.0180    -1.2080 ca         1 9YY      -0.108500
      3 C17          7.0680    -2.2240    -1.0660 ca         1 9YY      -0.129000
      4 C16          7.7040    -1.8750     0.1170 ca         1 9YY      -0.116000
      5 C15          6.9660    -1.3210     1.1570 ca         1 9YY      -0.129000
      6 C19         -2.9080    -0.2040    -0.0000 ca         1 9YY       0.152600
      7 C20         -3.7210    -1.3510    -0.0500 ca         1 9YY      -0.142000
      8 C21         -5.0850    -1.2260     0.0540 ca         1 9YY      -0.111300
      9 C22         -5.6680     0.0300     0.2070 ca         1 9YY       0.029600
     10 C23         -4.8950     1.1690     0.2560 ca         1 9YY      -0.132000
     11 C24         -3.5100     1.0470     0.1520 ca         1 9YY      -0.120000
     12 C12          3.4760    -1.2380    -0.3240 c3         1 9YY       0.276100
     13 C1           1.7120     2.0870    -0.0440 ca         1 9YY      -0.412900
     14 C2           0.3940     2.5090    -0.0080 ca         1 9YY       0.513200
     15 N3          -0.6780     1.7320    -0.0300 nb         1 9YY      -0.782000
     16 C4          -0.4680     0.4160    -0.0910 ca         1 9YY       0.742200
     17 C5           0.8110    -0.1460    -0.1630 ca         1 9YY      -0.440300
     18 C6           1.9370     0.6770    -0.1520 ca         1 9YY       0.319600
     19 N7           3.1800     0.1700    -0.2110 nu         1 9YY      -0.763600
     20 C9           2.8310     3.0530    -0.0030 c          1 9YY       0.707700
     21 N10          2.5670     4.2770     0.4860 nt         1 9YY      -0.663000
     22 O11          3.9580     2.7630    -0.4110 o          1 9YY      -0.646100
     23 C14          5.6020    -1.1210     1.0140 ca         1 9YY      -0.108500
     24 C25         -6.1760    -2.2480     0.0380 c5         1 9YY      -0.120100
     25 C26         -7.4410    -1.4160     0.1960 c          1 9YY       0.706500
     26 N27         -7.0520    -0.1160     0.2870 ns         1 9YY      -0.472100
     27 O28         -8.5850    -1.8210     0.2340 o          1 9YY      -0.607500
     28 H1           5.2100    -2.2890    -2.1350 ha         1 9YY       0.133500
     29 H2           7.6340    -2.6540    -1.8820 ha         1 9YY       0.133000
     30 H3           8.7690    -2.0320     0.2300 ha         1 9YY       0.132000
     31 H4           7.4550    -1.0470     2.0830 ha         1 9YY       0.133000
     32 H5          -3.2730    -2.3310    -0.1710 ha         1 9YY       0.131000
     33 H6          -5.3370     2.1500     0.3760 ha         1 9YY       0.141000
     34 H7          -2.8980     1.9330     0.1880 ha         1 9YY       0.174000
     35 H8           3.1350    -1.6470    -1.2830 h1         1 9YY       0.046200
     36 H9           2.9420    -1.7880     0.4580 h1         1 9YY       0.046200
     37 H10          0.1740     3.5710     0.0160 h4         1 9YY       0.009100
     38 H11          0.9120    -1.2200    -0.2380 ha         1 9YY       0.138000
     39 H12          3.9230     0.8370    -0.3690 hn         1 9YY       0.484800
     40 H13         -1.2900    -1.4060    -0.1800 hn         1 9YY       0.437800
     41 H14          1.7390     4.4800     1.0190 hn         1 9YY       0.312000
     42 H15          3.3210     4.9410     0.5590 hn         1 9YY       0.312000
     43 H16          5.0350    -0.6920     1.8320 ha         1 9YY       0.133500
     44 H17         -6.2180    -2.8230    -0.8900 hc         1 9YY       0.089200
     45 H18         -6.1030    -2.9700     0.8550 hc         1 9YY       0.089200
     46 H19         -7.7020     0.6470     0.4060 hn         1 9YY       0.337500
     47 N8          -1.5360    -0.4320    -0.1020 nu         1 9YY      -0.743300
@<TRIPOS>BOND
     1     1     2 ar  
     2     1    12 1   
     3     1    23 ar  
     4     2     3 ar  
     5     2    28 1   
     6     3     4 ar  
     7     3    29 1   
     8     4     5 ar  
     9     4    30 1   
    10     5    23 ar  
    11     5    31 1   
    12     6     7 ar  
    13     6    11 ar  
    14     6    47 1   
    15     7     8 ar  
    16     7    32 1   
    17     8     9 ar  
    18     8    24 1   
    19     9    10 ar  
    20     9    26 1   
    21    10    11 ar  
    22    10    33 1   
    23    11    34 1   
    24    12    19 1   
    25    12    35 1   
    26    12    36 1   
    27    13    14 ar  
    28    13    18 ar  
    29    13    20 1   
    30    14    15 ar  
    31    14    37 1   
    32    15    16 ar  
    33    16    17 ar  
    34    16    47 1   
    35    17    18 ar  
    36    17    38 1   
    37    18    19 1   
    38    19    39 1   
    39    20    21 1   
    40    20    22 2   
    41    21    41 1   
    42    21    42 1   
    43    23    43 1   
    44    24    25 1   
    45    24    44 1   
    46    24    45 1   
    47    25    26 1   
    48    25    27 2   
    49    26    46 1   
    50    40    47 1   
@<TRIPOS>SUBSTRUCTURE
     1 9YY         1 TEMP              0 ****  ****    0 ROOT
