@<TRIPOS>MOLECULE
9YZ
   34    35     1     0     0
SMALL
No Charge or Current Charge


@<TRIPOS>ATOM
      1 C1          -3.4840    -1.8290    -0.1280 c3         1 9YZ      -0.154400
      2 C2          -4.9960    -1.6170    -0.3740 c3         1 9YZ      -0.078100
      3 C4           0.7900    -1.4940     0.7700 c6         1 9YZ       0.079000
      4 C6           4.7550    -1.8560    -0.4420 c3         1 9YZ       0.169900
      5 C7          -0.6700     0.8420     0.0030 ca         1 9YZ      -0.073000
      6 C9           1.3430     2.2000     0.3020 ca         1 9YZ      -0.098000
      7 C10          0.5980     3.3720     0.1090 ca         1 9YZ      -0.106000
      8 C12         -1.4050     2.0380    -0.1790 ca         1 9YZ      -0.087000
      9 O2           3.4410     0.5080    -0.7860 o          1 9YZ      -0.514000
     10 O1           3.4160    -1.6200     0.0310 os         1 9YZ      -0.455100
     11 N1           1.5210    -0.2880     0.3080 n          1 9YZ      -0.210400
     12 C3          -0.5080    -1.6540    -0.0370 c6         1 9YZ       0.066000
     13 C8           0.7250     0.9270     0.2900 ca         1 9YZ      -0.060000
     14 C11         -0.7760     3.2910    -0.1340 ca         1 9YZ      -0.110000
     15 N           -1.3570    -0.4410     0.0780 n          1 9YZ      -0.223400
     16 C           -2.7330    -0.5930     0.4180 c          1 9YZ       0.602100
     17 O           -3.3260     0.2350     1.1010 o          1 9YZ      -0.565100
     18 H1          -3.3370    -2.6450     0.5890 hc         1 9YZ       0.057700
     19 H2          -2.9870    -2.1870    -1.0360 hc         1 9YZ       0.057700
     20 H3          -5.4500    -2.5310    -0.7750 hc         1 9YZ       0.044367
     21 H4          -5.5140    -1.3610     0.5590 hc         1 9YZ       0.044367
     22 H5          -5.1610    -0.8080    -1.0960 hc         1 9YZ       0.044367
     23 H6           1.3750    -2.4170     0.6740 h1         1 9YZ       0.071700
     24 H7           0.5450    -1.3730     1.8350 h1         1 9YZ       0.071700
     25 H8           5.0730    -2.8760    -0.1960 h1         1 9YZ       0.050700
     26 H9           4.8120    -1.7360    -1.5320 h1         1 9YZ       0.050700
     27 H10          5.4630    -1.1580     0.0230 h1         1 9YZ       0.050700
     28 H11          2.4080     2.3010     0.4960 ha         1 9YZ       0.134000
     29 H12          1.0900     4.3420     0.1420 ha         1 9YZ       0.117000
     30 H13         -2.4720     2.0120    -0.3850 ha         1 9YZ       0.132000
     31 H14         -0.2670    -1.8250    -1.0960 h1         1 9YZ       0.064700
     32 H15         -1.0330    -2.5440     0.3360 h1         1 9YZ       0.064700
     33 H16         -1.3570     4.1980    -0.2880 ha         1 9YZ       0.118000
     34 C5           2.8560    -0.3870    -0.1900 c          1 9YZ       0.643100
@<TRIPOS>BOND
     1     1     2 1   
     2     1    16 1   
     3     1    18 1   
     4     1    19 1   
     5     2    20 1   
     6     2    21 1   
     7     2    22 1   
     8     3    11 1   
     9     3    12 1   
    10     3    23 1   
    11     3    24 1   
    12     4    10 1   
    13     4    25 1   
    14     4    26 1   
    15     4    27 1   
    16     5     8 ar  
    17     5    13 ar  
    18     5    15 1   
    19     6     7 ar  
    20     6    13 ar  
    21     6    28 1   
    22     7    14 ar  
    23     7    29 1   
    24     8    14 ar  
    25     8    30 1   
    26     9    34 2   
    27    10    34 1   
    28    11    13 1   
    29    11    34 1   
    30    12    15 1   
    31    12    31 1   
    32    12    32 1   
    33    14    33 1   
    34    15    16 1   
    35    16    17 2   
@<TRIPOS>SUBSTRUCTURE
     1 9YZ         1 TEMP              0 ****  ****    0 ROOT
