@<TRIPOS>MOLECULE
9YZ
   34    35     1     0     0
SMALL
abcg2


@<TRIPOS>ATOM
      1 C1          -3.3000    -1.8300    -0.0630 c3         1 9YZ      -0.154400
      2 C2          -4.7870    -1.8160     0.2500 c3         1 9YZ      -0.078100
      3 C4           0.5690    -1.5100     0.4440 c6         1 9YZ       0.079000
      4 C6           4.5680    -1.8490    -0.1530 c3         1 9YZ       0.169900
      5 C7          -0.6680     0.8940    -0.2130 ca         1 9YZ      -0.073000
      6 C9           1.3080     2.1230     0.4270 ca         1 9YZ      -0.098000
      7 C10          0.6440     3.3190     0.2310 ca         1 9YZ      -0.106000
      8 C12         -1.3050     2.1130    -0.4590 ca         1 9YZ      -0.087000
      9 O2           3.3800     0.4930    -0.5160 o          1 9YZ      -0.514000
     10 O1           3.2100    -1.6110     0.2130 os         1 9YZ      -0.455100
     11 N1           1.3940    -0.3170     0.3050 n          1 9YZ      -0.210400
     12 C3          -0.5130    -1.4700    -0.6170 c6         1 9YZ       0.066000
     13 C8           0.6900     0.8980     0.1620 ca         1 9YZ      -0.060000
     14 C11         -0.6590     3.3150    -0.2480 ca         1 9YZ      -0.110000
     15 N           -1.3680    -0.3240    -0.3660 n          1 9YZ      -0.223400
     16 C           -2.6530    -0.4700     0.1100 c          1 9YZ       0.602100
     17 O           -3.2580     0.4490     0.6280 o          1 9YZ      -0.565100
     18 H1          -2.8000    -2.5520     0.5900 hc         1 9YZ       0.057700
     19 H2          -3.1370    -2.1870    -1.0830 hc         1 9YZ       0.057700
     20 H3          -5.1970    -2.8140     0.0990 hc         1 9YZ       0.044367
     21 H4          -4.9810    -1.5290     1.2820 hc         1 9YZ       0.044367
     22 H5          -5.3300    -1.1310    -0.4000 hc         1 9YZ       0.044367
     23 H6           1.1700    -2.4030     0.3290 h1         1 9YZ       0.071700
     24 H7           0.1180    -1.5380     1.4380 h1         1 9YZ       0.071700
     25 H8           4.7630    -2.8850     0.1040 h1         1 9YZ       0.050700
     26 H9           4.7260    -1.7070    -1.2220 h1         1 9YZ       0.050700
     27 H10          5.2490    -1.2040     0.4010 h1         1 9YZ       0.050700
     28 H11          2.3200     2.1450     0.7980 ha         1 9YZ       0.134000
     29 H12          1.1500     4.2500     0.4440 ha         1 9YZ       0.117000
     30 H13         -2.3170     2.1190    -0.8320 ha         1 9YZ       0.132000
     31 H14         -0.0660    -1.3940    -1.6110 h1         1 9YZ       0.064700
     32 H15         -1.0850    -2.3910    -0.5910 h1         1 9YZ       0.064700
     33 H16         -1.1770     4.2440    -0.4470 ha         1 9YZ       0.118000
     34 C5           2.7200    -0.4040    -0.0450 c          1 9YZ       0.643100
@<TRIPOS>BOND
     1     1     2 1   
     2     1    16 1   
     3     1    18 1   
     4     1    19 1   
     5     2    20 1   
     6     2    21 1   
     7     2    22 1   
     8     3    11 1   
     9     3    12 1   
    10     3    23 1   
    11     3    24 1   
    12     4    10 1   
    13     4    25 1   
    14     4    26 1   
    15     4    27 1   
    16     5     8 ar  
    17     5    13 ar  
    18     5    15 1   
    19     6     7 ar  
    20     6    13 ar  
    21     6    28 1   
    22     7    14 ar  
    23     7    29 1   
    24     8    14 ar  
    25     8    30 1   
    26     9    34 2   
    27    10    34 1   
    28    11    13 1   
    29    11    34 1   
    30    12    15 1   
    31    12    31 1   
    32    12    32 1   
    33    14    33 1   
    34    15    16 1   
    35    16    17 2   
@<TRIPOS>SUBSTRUCTURE
     1 9YZ         1 TEMP              0 ****  ****    0 ROOT
