@<TRIPOS>MOLECULE
9Z0
   24    24     1     0     0
SMALL
No Charge or Current Charge


@<TRIPOS>ATOM
      1 O01          2.2430    -2.5670    -0.0480 o          1 9Z0      -0.582100
      2 C02          2.0270    -1.3640    -0.0340 c          1 9Z0       0.637700
      3 N03          3.0460    -0.4390    -0.0250 ns         1 9Z0      -0.507900
      4 C04          4.4680    -0.7870    -0.0330 c3         1 9Z0       0.103000
      5 C05          5.3610     0.4670    -0.0150 c3         1 9Z0      -0.102400
      6 C06          6.8620     0.1240    -0.0230 c3         1 9Z0       0.167600
      7 O07          7.6300     1.3310    -0.0050 oh         1 9Z0      -0.662000
      8 C08          0.6680    -0.7710    -0.0230 cc         1 9Z0      -0.234600
      9 C09         -0.4810    -1.5250    -0.0290 cd         1 9Z0      -0.072000
     10 C10         -1.6030    -0.6730    -0.0160 cd         1 9Z0      -0.082900
     11 Br1         -3.4010    -1.2450    -0.0180 br         1 9Z0      -0.038100
     12 C12         -1.1600     0.6200    -0.0020 cc         1 9Z0      -0.085900
     13 Br2         -2.1800     2.2070     0.0200 br         1 9Z0      -0.010100
     14 N14          0.2340     0.5670    -0.0060 na         1 9Z0      -0.077000
     15 H03          2.7880     0.5370    -0.0130 hn         1 9Z0       0.307500
     16 H041         4.6860    -1.4070     0.8470 h1         1 9Z0       0.055200
     17 H042         4.6830    -1.3790    -0.9330 h1         1 9Z0       0.055200
     18 H051         5.1280     1.0890    -0.8890 hc         1 9Z0       0.056700
     19 H052         5.1310     1.0610     0.8780 hc         1 9Z0       0.056700
     20 H061         7.0980    -0.4910     0.8560 h1         1 9Z0       0.021700
     21 H062         7.0950    -0.4630    -0.9210 h1         1 9Z0       0.021700
     22 H07          8.5780     1.0670    -0.0110 ho         1 9Z0       0.448000
     23 H09         -0.5210    -2.6120    -0.0420 ha         1 9Z0       0.165000
     24 H14          0.8310     1.3880     0.0020 hn         1 9Z0       0.358000
@<TRIPOS>BOND
     1     1     2 2   
     2     2     3 1   
     3     2     8 1   
     4     3     4 1   
     5     3    15 1   
     6     4     5 1   
     7     4    16 1   
     8     4    17 1   
     9     5     6 1   
    10     5    18 1   
    11     5    19 1   
    12     6     7 1   
    13     6    20 1   
    14     6    21 1   
    15     7    22 1   
    16     8     9 2   
    17     8    14 1   
    18     9    10 1   
    19     9    23 1   
    20    10    11 1   
    21    10    12 2   
    22    12    13 1   
    23    12    14 1   
    24    14    24 1   
@<TRIPOS>SUBSTRUCTURE
     1 9Z0         1 TEMP              0 ****  ****    0 ROOT
