@<TRIPOS>MOLECULE
9Z0
   24    24     1     0     0
SMALL
abcg2


@<TRIPOS>ATOM
      1 O01          2.2750    -2.4780    -0.3650 o          1 9Z0      -0.582100
      2 C02          2.0590    -1.2880    -0.1770 c          1 9Z0       0.637700
      3 N03          3.0380    -0.3800    -0.0380 ns         1 9Z0      -0.507900
      4 C04          4.4380    -0.7550    -0.0730 c3         1 9Z0       0.103000
      5 C05          5.3170     0.4810     0.0140 c3         1 9Z0      -0.102400
      6 C06          6.7870     0.1110     0.0110 c3         1 9Z0       0.167600
      7 O07          7.5480     1.2970     0.0600 oh         1 9Z0      -0.662000
      8 C08          0.6700    -0.7980    -0.0950 cc         1 9Z0      -0.234600
      9 C09         -0.4550    -1.5720     0.0650 cd         1 9Z0      -0.072000
     10 C10         -1.5540    -0.6950     0.1000 cd         1 9Z0      -0.082900
     11 BR1         -3.3390    -1.1550     0.3180 br         1 9Z0      -0.038100
     12 C12         -1.0670     0.5830    -0.0460 cc         1 9Z0      -0.085900
     13 BR2         -1.9900     2.1800    -0.1240 br         1 9Z0      -0.010100
     14 N14          0.2780     0.5100    -0.1570 na         1 9Z0      -0.077000
     15 H03          2.8220     0.5480     0.2850 hn         1 9Z0       0.307500
     16 H041         4.6660    -1.4380     0.7510 h1         1 9Z0       0.055200
     17 H042         4.6420    -1.2970    -0.9990 h1         1 9Z0       0.055200
     18 H051         5.1060     1.1440    -0.8300 hc         1 9Z0       0.056700
     19 H052         5.0850     1.0340     0.9290 hc         1 9Z0       0.056700
     20 H061         7.0000    -0.5380     0.8710 h1         1 9Z0       0.021700
     21 H062         7.0140    -0.4750    -0.8900 h1         1 9Z0       0.021700
     22 H07          8.4780     1.0560     0.0840 ho         1 9Z0       0.448000
     23 H09         -0.4810    -2.6450     0.1620 ha         1 9Z0       0.165000
     24 H14          0.8720     1.3050    -0.3380 hn         1 9Z0       0.358000
@<TRIPOS>BOND
     1     1     2 2   
     2     2     3 1   
     3     2     8 1   
     4     3     4 1   
     5     3    15 1   
     6     4     5 1   
     7     4    16 1   
     8     4    17 1   
     9     5     6 1   
    10     5    18 1   
    11     5    19 1   
    12     6     7 1   
    13     6    20 1   
    14     6    21 1   
    15     7    22 1   
    16     8     9 2   
    17     8    14 1   
    18     9    10 1   
    19     9    23 1   
    20    10    11 1   
    21    10    12 2   
    22    12    13 1   
    23    12    14 1   
    24    14    24 1   
@<TRIPOS>SUBSTRUCTURE
     1 9Z0         1 TEMP              0 ****  ****    0 ROOT
