@<TRIPOS>MOLECULE
9Z2
   30    31     1     0     0
SMALL
No Charge or Current Charge


@<TRIPOS>ATOM
      1 N1          -3.5470    -1.0370     0.3590 nb         1 9Z2      -0.183500
      2 C2           6.1570     0.3110     0.7570 c3         1 9Z2      -0.077100
      3 C4           0.8850     0.9530    -0.4270 ca         1 9Z2      -0.172000
      4 C5          -0.5150     1.0640    -0.3650 ca         1 9Z2      -0.035000
      5 C6           0.7250    -1.3850     0.1740 ca         1 9Z2      -0.172000
      6 O            3.8350     1.5170    -0.9870 o          1 9Z2      -0.569100
      7 C            3.9750     0.3750    -0.5650 c          1 9Z2       0.606100
      8 C1           5.3660    -0.2640    -0.4400 c3         1 9Z2      -0.159400
      9 C3           1.5200    -0.2760    -0.1600 ca         1 9Z2       0.005000
     10 C7          -0.6740    -1.2790     0.2370 ca         1 9Z2      -0.035000
     11 C8          -1.3350    -0.0490    -0.0320 cp         1 9Z2      -0.188500
     12 C9          -2.8380     0.0690     0.0340 cp         1 9Z2       0.204500
     13 N2          -3.3900     1.2750    -0.2370 nb         1 9Z2      -0.183500
     14 C12         -4.7320     1.3840    -0.1780 ca         1 9Z2       0.116400
     15 C11         -5.5380     0.2830     0.1520 ca         1 9Z2      -0.230000
     16 C10         -4.8890    -0.9330     0.4180 ca         1 9Z2       0.116400
     17 H1           6.2990     1.3930     0.6460 hc         1 9Z2       0.045033
     18 H2           5.6250     0.1280     1.6980 hc         1 9Z2       0.045033
     19 H3           7.1460    -0.1580     0.8250 hc         1 9Z2       0.045033
     20 H4           1.4550     1.8400    -0.6800 ha         1 9Z2       0.129500
     21 H5          -0.9610     2.0330    -0.5790 ha         1 9Z2       0.135000
     22 H6           1.1930    -2.3430     0.3880 ha         1 9Z2       0.129500
     23 H7           5.9330    -0.0580    -1.3560 hc         1 9Z2       0.057700
     24 H8           5.2730    -1.3480    -0.2990 hc         1 9Z2       0.057700
     25 H9           3.2250    -1.3820     0.1030 hn         1 9Z2       0.148000
     26 H10         -1.2450    -2.1680     0.4990 ha         1 9Z2       0.135000
     27 H11         -5.1620     2.3600    -0.3980 h4         1 9Z2       0.023600
     28 H12         -6.6200     0.3680     0.1990 ha         1 9Z2       0.135000
     29 H13         -5.4460    -1.8320     0.6810 h4         1 9Z2       0.023600
     30 N            2.9290    -0.4630    -0.2000 ns         1 9Z2      -0.152000
@<TRIPOS>BOND
     1     1    12 ar  
     2     1    16 ar  
     3     2     8 1   
     4     2    17 1   
     5     2    18 1   
     6     2    19 1   
     7     3     4 ar  
     8     3     9 ar  
     9     3    20 1   
    10     4    11 ar  
    11     4    21 1   
    12     5     9 ar  
    13     5    10 ar  
    14     5    22 1   
    15     6     7 2   
    16     7     8 1   
    17     7    30 1   
    18     8    23 1   
    19     8    24 1   
    20     9    30 1   
    21    10    11 ar  
    22    10    26 1   
    23    11    12 1   
    24    12    13 ar  
    25    13    14 ar  
    26    14    15 ar  
    27    14    27 1   
    28    15    16 ar  
    29    15    28 1   
    30    16    29 1   
    31    25    30 1   
@<TRIPOS>SUBSTRUCTURE
     1 9Z2         1 TEMP              0 ****  ****    0 ROOT
