@<TRIPOS>MOLECULE
9Z2
   30    31     1     0     0
SMALL
bcc


@<TRIPOS>ATOM
      1 N1          -3.5340    -1.0770     0.0030 nb         1 9Z2      -0.709500
      2 C2           6.3750     0.6500     0.0650 c3         1 9Z2      -0.077100
      3 C4           0.8640     0.9150    -0.0400 ca         1 9Z2      -0.190000
      4 C5          -0.5160     1.0250    -0.0620 ca         1 9Z2      -0.053000
      5 C6           0.6340    -1.4750     0.0880 ca         1 9Z2      -0.190000
      6 O            3.7100     1.5200    -0.0890 o          1 9Z2      -0.569100
      7 C            3.8640     0.3180     0.0060 c          1 9Z2       0.673100
      8 C1           5.2260    -0.3400     0.0610 c3         1 9Z2      -0.159400
      9 C3           1.4600    -0.3470     0.0370 ca         1 9Z2       0.097600
     10 C7          -0.7400    -1.3500     0.0640 ca         1 9Z2      -0.053000
     11 C8          -1.3450    -0.0940    -0.0110 cp         1 9Z2      -0.188500
     12 C9          -2.8120     0.0410    -0.0320 cp         1 9Z2       0.730500
     13 N2          -3.3200     1.2710    -0.0830 nb         1 9Z2      -0.709500
     14 C12         -4.6390     1.3850    -0.0980 ca         1 9Z2       0.444700
     15 C11         -5.4780     0.2830    -0.0630 ca         1 9Z2      -0.378600
     16 C10         -4.8520    -0.9510    -0.0130 ca         1 9Z2       0.444700
     17 H1           6.3780     1.2680    -0.8320 hc         1 9Z2       0.045033
     18 H2           6.3350     1.3100     0.9310 hc         1 9Z2       0.045033
     19 H3           7.3240     0.1150     0.1010 hc         1 9Z2       0.045033
     20 H4           1.4630     1.8090    -0.0820 ha         1 9Z2       0.147500
     21 H5          -0.9560     2.0110    -0.1210 ha         1 9Z2       0.153000
     22 H6           1.0760    -2.4620     0.1490 ha         1 9Z2       0.147500
     23 H7           5.3110    -1.0190    -0.7930 hc         1 9Z2       0.057700
     24 H8           5.2680    -0.9790     0.9480 hc         1 9Z2       0.057700
     25 H9           3.0980    -1.5430     0.1500 hn         1 9Z2       0.314500
     26 H10         -1.3530    -2.2400     0.1060 ha         1 9Z2       0.153000
     27 H11         -5.0410     2.3910    -0.1390 h4         1 9Z2       0.023600
     28 H12         -6.5530     0.3810    -0.0740 ha         1 9Z2       0.153000
     29 H13         -5.4310    -1.8680     0.0170 h4         1 9Z2       0.023600
     30 N            2.8330    -0.5720     0.0710 ns         1 9Z2      -0.478100
@<TRIPOS>BOND
     1     1    12 ar  
     2     1    16 ar  
     3     2     8 1   
     4     2    17 1   
     5     2    18 1   
     6     2    19 1   
     7     3     4 ar  
     8     3     9 ar  
     9     3    20 1   
    10     4    11 ar  
    11     4    21 1   
    12     5     9 ar  
    13     5    10 ar  
    14     5    22 1   
    15     6     7 2   
    16     7     8 1   
    17     7    30 1   
    18     8    23 1   
    19     8    24 1   
    20     9    30 1   
    21    10    11 ar  
    22    10    26 1   
    23    11    12 1   
    24    12    13 ar  
    25    13    14 ar  
    26    14    15 ar  
    27    14    27 1   
    28    15    16 ar  
    29    15    28 1   
    30    16    29 1   
    31    25    30 1   
@<TRIPOS>SUBSTRUCTURE
     1 9Z2         1 TEMP              0 ****  ****    0 ROOT
