@<TRIPOS>MOLECULE
9Z4
   44    46     1     0     0
SMALL
No Charge or Current Charge


@<TRIPOS>ATOM
      1 C1          -3.0990     1.2480     0.0970 cc         1 9Z4      -0.235000
      2 N2          -3.9580     1.2040     1.1580 na         1 9Z4       0.282900
      3 N3          -4.1280     0.1190     1.9740 nc         1 9Z4      -0.538800
      4 C4          -3.3580    -0.9170     1.6180 cd         1 9Z4       0.388900
      5 C5          -2.4140    -0.9840     0.5230 cd         1 9Z4      -0.412600
      6 C6          -2.2730     0.1450    -0.2440 cc         1 9Z4       0.499000
      7 C7          -3.2740     2.4880    -0.4760 cd         1 9Z4      -0.203000
      8 C8          -4.2500     3.1810     0.2950 cd         1 9Z4      -0.254000
      9 C9          -4.6800     2.3730     1.3280 cc         1 9Z4      -0.171100
     10 C10         -1.6320    -2.2010     0.2330 c          1 9Z4       0.650700
     11 N11         -1.8260    -3.2470     1.0560 nt         1 9Z4      -0.595000
     12 O12         -0.8430    -2.3170    -0.6880 o          1 9Z4      -0.666100
     13 N13         -1.4110     0.2520    -1.3020 nu         1 9Z4      -0.931200
     14 C14         -0.4970     1.3750    -1.5210 c3         1 9Z4       0.273100
     15 C15          0.9130     0.8400    -1.7270 ca         1 9Z4      -0.092300
     16 C16          1.4480     0.7200    -3.0230 ca         1 9Z4      -0.114000
     17 C17          2.7480     0.2210    -3.2050 ca         1 9Z4      -0.085000
     18 C18          3.5190    -0.1670    -2.0960 ca         1 9Z4      -0.118000
     19 C19          2.9930    -0.0590    -0.7890 ca         1 9Z4      -0.015000
     20 C20          1.6910     0.4480    -0.6200 ca         1 9Z4      -0.150000
     21 N21          3.7080    -0.4320     0.3820 ns         1 9Z4      -0.152000
     22 C22          4.9590    -1.0040     0.5740 c          1 9Z4       0.606100
     23 C23          5.3270    -1.2350     2.0480 c3         1 9Z4      -0.159400
     24 O24          5.7150    -1.3390    -0.3310 o          1 9Z4      -0.573100
     25 C25          6.4050    -0.2390     2.5320 c3         1 9Z4      -0.077100
     26 H1          -3.5190    -1.7650     2.2710 h4         1 9Z4       0.020100
     27 H2          -2.7750     2.8710    -1.3630 ha         1 9Z4       0.200000
     28 H3          -4.6110     4.1900     0.0980 ha         1 9Z4       0.205000
     29 H4          -5.4050     2.5120     2.1210 h4         1 9Z4       0.232000
     30 H5          -2.4720    -3.1840     1.8270 hn         1 9Z4       0.310500
     31 H6          -1.3100    -4.0970     0.8890 hn         1 9Z4       0.310500
     32 H7          -0.9590    -0.6630    -1.4310 hn         1 9Z4       0.554000
     33 H8          -0.8070     1.9520    -2.4030 h1         1 9Z4       0.056700
     34 H9          -0.4970     2.0550    -0.6570 h1         1 9Z4       0.056700
     35 H10          0.8590     1.0140    -3.8890 ha         1 9Z4       0.120000
     36 H11          3.1580     0.1330    -4.2080 ha         1 9Z4       0.119000
     37 H12          4.5210    -0.5450    -2.2750 ha         1 9Z4       0.150000
     38 H13          1.2730     0.5340     0.3810 ha         1 9Z4       0.110000
     39 H14          3.2100    -0.2370     1.2410 hn         1 9Z4       0.148000
     40 H15          4.4400    -1.1160     2.6820 hc         1 9Z4       0.057700
     41 H16          5.7250    -2.2500     2.1570 hc         1 9Z4       0.057700
     42 H17          7.3240    -0.3410     1.9430 hc         1 9Z4       0.045367
     43 H18          6.0490     0.7950     2.4410 hc         1 9Z4       0.045367
     44 H19          6.6520    -0.4240     3.5850 hc         1 9Z4       0.045367
@<TRIPOS>BOND
     1     1     2 1   
     2     1     6 1   
     3     1     7 2   
     4     2     3 1   
     5     2     9 1   
     6     3     4 2   
     7     4     5 1   
     8     4    26 1   
     9     5     6 2   
    10     5    10 1   
    11     6    13 1   
    12     7     8 1   
    13     7    27 1   
    14     8     9 2   
    15     8    28 1   
    16     9    29 1   
    17    10    11 1   
    18    10    12 2   
    19    11    30 1   
    20    11    31 1   
    21    13    14 1   
    22    13    32 1   
    23    14    15 1   
    24    14    33 1   
    25    14    34 1   
    26    15    16 ar  
    27    15    20 ar  
    28    16    17 ar  
    29    16    35 1   
    30    17    18 ar  
    31    17    36 1   
    32    18    19 ar  
    33    18    37 1   
    34    19    20 ar  
    35    19    21 1   
    36    20    38 1   
    37    21    22 1   
    38    21    39 1   
    39    22    23 1   
    40    22    24 2   
    41    23    25 1   
    42    23    40 1   
    43    23    41 1   
    44    25    42 1   
    45    25    43 1   
    46    25    44 1   
@<TRIPOS>SUBSTRUCTURE
     1 9Z4         1 TEMP              0 ****  ****    0 ROOT
