@<TRIPOS>MOLECULE
9Z4
   44    46     1     0     0
SMALL
abcg2


@<TRIPOS>ATOM
      1 C1          -3.2310     1.1900     0.1510 cc         1 9Z4      -0.235000
      2 N2          -4.5440     1.0280     0.5690 na         1 9Z4       0.282900
      3 N3          -5.1740    -0.1390     0.8030 nc         1 9Z4      -0.538800
      4 C4          -4.4310    -1.1860     0.6650 cd         1 9Z4       0.388900
      5 C5          -3.0660    -1.2180     0.2870 cd         1 9Z4      -0.412600
      6 C6          -2.4410     0.0120    -0.0270 cc         1 9Z4       0.499000
      7 C7          -3.0300     2.5620     0.0110 cd         1 9Z4      -0.203000
      8 C8          -4.2290     3.1990     0.3500 cd         1 9Z4      -0.254000
      9 C9          -5.1480     2.2270     0.6880 cc         1 9Z4      -0.171100
     10 C10         -2.3320    -2.4870     0.2080 c          1 9Z4       0.650700
     11 N11         -2.9120    -3.5840     0.7310 nt         1 9Z4      -0.595000
     12 O12         -1.2170    -2.5710    -0.3260 o          1 9Z4      -0.666100
     13 N13         -1.1840     0.0620    -0.4600 nu         1 9Z4      -0.931200
     14 C14         -0.3920     1.2340    -0.7730 c3         1 9Z4       0.273100
     15 C15          0.9900     0.7990    -1.1780 ca         1 9Z4      -0.092300
     16 C16          1.2950     0.5510    -2.5120 ca         1 9Z4      -0.114000
     17 C17          2.5690     0.1210    -2.8480 ca         1 9Z4      -0.085000
     18 C18          3.5480    -0.0710    -1.8830 ca         1 9Z4      -0.118000
     19 C19          3.2470     0.1750    -0.5410 ca         1 9Z4      -0.015000
     20 C20          1.9600     0.6060    -0.2070 ca         1 9Z4      -0.150000
     21 N21          4.1450     0.0200     0.5150 ns         1 9Z4      -0.152000
     22 C22          5.4670    -0.3060     0.4970 c          1 9Z4       0.606100
     23 C23          6.0790    -0.3940     1.8790 c3         1 9Z4      -0.159400
     24 O24          6.0970    -0.5200    -0.5220 o          1 9Z4      -0.573100
     25 C25          7.5900    -0.5260     1.8640 c3         1 9Z4      -0.077100
     26 H1          -4.9660    -2.1100     0.8430 h4         1 9Z4       0.020100
     27 H2          -2.1280     3.0600    -0.2960 ha         1 9Z4       0.200000
     28 H3          -4.4130     4.2610     0.3490 ha         1 9Z4       0.205000
     29 H4          -6.1770     2.2960     0.9980 h4         1 9Z4       0.232000
     30 H5          -3.7020    -3.5470     1.3490 hn         1 9Z4       0.310500
     31 H6          -2.3960    -4.4480     0.7200 hn         1 9Z4       0.310500
     32 H7          -0.7610    -0.8550    -0.5860 hn         1 9Z4       0.554000
     33 H8          -0.8530     1.8030    -1.5840 h1         1 9Z4       0.056700
     34 H9          -0.3270     1.8920     0.0970 h1         1 9Z4       0.056700
     35 H10          0.5460     0.6970    -3.2800 ha         1 9Z4       0.120000
     36 H11          2.8160    -0.0710    -3.8840 ha         1 9Z4       0.119000
     37 H12          4.5280    -0.4040    -2.1810 ha         1 9Z4       0.150000
     38 H13          1.7170     0.8010     0.8320 ha         1 9Z4       0.110000
     39 H14          3.7530     0.1970     1.4280 hn         1 9Z4       0.148000
     40 H15          5.7770     0.4820     2.4590 hc         1 9Z4       0.057700
     41 H16          5.6290    -1.2530     2.3880 hc         1 9Z4       0.057700
     42 H17          7.9120    -1.4190     1.3300 hc         1 9Z4       0.045367
     43 H18          8.0660     0.3360     1.3980 hc         1 9Z4       0.045367
     44 H19          7.9640    -0.5980     2.8850 hc         1 9Z4       0.045367
@<TRIPOS>BOND
     1     1     2 1   
     2     1     6 1   
     3     1     7 2   
     4     2     3 1   
     5     2     9 1   
     6     3     4 2   
     7     4     5 1   
     8     4    26 1   
     9     5     6 2   
    10     5    10 1   
    11     6    13 1   
    12     7     8 1   
    13     7    27 1   
    14     8     9 2   
    15     8    28 1   
    16     9    29 1   
    17    10    11 1   
    18    10    12 2   
    19    11    30 1   
    20    11    31 1   
    21    13    14 1   
    22    13    32 1   
    23    14    15 1   
    24    14    33 1   
    25    14    34 1   
    26    15    16 ar  
    27    15    20 ar  
    28    16    17 ar  
    29    16    35 1   
    30    17    18 ar  
    31    17    36 1   
    32    18    19 ar  
    33    18    37 1   
    34    19    20 ar  
    35    19    21 1   
    36    20    38 1   
    37    21    22 1   
    38    21    39 1   
    39    22    23 1   
    40    22    24 2   
    41    23    25 1   
    42    23    40 1   
    43    23    41 1   
    44    25    42 1   
    45    25    43 1   
    46    25    44 1   
@<TRIPOS>SUBSTRUCTURE
     1 9Z4         1 TEMP              0 ****  ****    0 ROOT
