@<TRIPOS>MOLECULE
9Z5
   51    55     1     0     0
SMALL
No Charge or Current Charge


@<TRIPOS>ATOM
      1 C16         -9.1200   -14.4420     0.7110 ca         1 9Z5      -0.095500
      2 C20        -11.0750   -15.4690    -0.3080 ca         1 9Z5      -0.095500
      3 C19        -10.3870   -16.6920    -0.3960 ca         1 9Z5      -0.114500
      4 C18         -9.0650   -16.7900     0.0700 ca         1 9Z5      -0.107000
      5 C17         -8.4320   -15.6650     0.6240 ca         1 9Z5      -0.114500
      6 C15        -10.4450   -14.3370     0.2440 ca         1 9Z5      -0.085300
      7 C14        -11.2000   -13.0160     0.3430 c3         1 9Z5      -0.077400
      8 C13        -12.1980   -12.9900     1.4750 cc         1 9Z5       0.426300
      9 C12        -11.7290   -12.7090     2.7840 cc         1 9Z5      -0.134000
     10 C22        -14.3360   -13.3860     2.3090 cd         1 9Z5       0.372500
     11 C23        -15.7320   -13.8270     2.0080 ca         1 9Z5      -0.139500
     12 C01        -13.5560   -11.3380     6.4260 c3         1 9Z5       0.135900
     13 C03        -12.0020   -12.5070     4.9590 cc         1 9Z5       0.002000
     14 C04        -10.6710   -12.3700     4.6520 cd         1 9Z5       0.059400
     15 C05         -9.5190   -12.0900     5.5810 c3         1 9Z5      -0.026500
     16 C06         -9.5860   -10.7240     6.2040 cc         1 9Z5       0.134300
     17 C07        -10.0210    -9.5270     5.7020 cd         1 9Z5      -0.179000
     18 C08         -9.8660    -8.5710     6.7260 cd         1 9Z5      -0.186000
     19 C09         -9.3410    -9.2210     7.8100 cc         1 9Z5       0.118900
     20 C24        -16.6920   -14.0110     3.0360 ca         1 9Z5      -0.083500
     21 C25        -18.0030   -14.4260     2.7390 ca         1 9Z5      -0.116000
     22 C26        -18.3870   -14.6670     1.4130 ca         1 9Z5      -0.098000
     23 C27        -17.4560   -14.4900     0.3810 ca         1 9Z5      -0.116000
     24 C28        -16.1450   -14.0750     0.6720 ca         1 9Z5      -0.083500
     25 C29        -13.9030   -13.1630     3.6280 cc         1 9Z5      -0.148000
     26 N11        -10.5060   -12.5040     3.2740 nd         1 9Z5      -0.259600
     27 N21        -13.4710   -13.2480     1.2000 nd         1 9Z5      -0.666000
     28 N30        -12.6500   -12.5850     3.7600 na         1 9Z5       0.133100
     29 O02        -12.4800   -12.2710     6.2250 os         1 9Z5      -0.313100
     30 O10         -9.1600   -10.5520     7.5030 os         1 9Z5      -0.245000
     31 H1          -8.6220   -13.5770     1.1450 ha         1 9Z5       0.119500
     32 H2         -12.1000   -15.4020    -0.6680 ha         1 9Z5       0.119500
     33 H3         -10.8790   -17.5630    -0.8230 ha         1 9Z5       0.111500
     34 H4          -8.5330   -17.7370     0.0030 ha         1 9Z5       0.111000
     35 H5          -7.4090   -15.7400     0.9860 ha         1 9Z5       0.111500
     36 H6         -10.4980   -12.1830     0.4620 hc         1 9Z5       0.076200
     37 H7         -11.7160   -12.8180    -0.6040 hc         1 9Z5       0.076200
     38 H8         -13.7630   -11.2240     7.4980 h1         1 9Z5       0.046033
     39 H9         -13.2910   -10.3520     6.0240 h1         1 9Z5       0.046033
     40 H10        -14.4790   -11.6740     5.9400 h1         1 9Z5       0.046033
     41 H11         -9.5020   -12.8490     6.3710 hc         1 9Z5       0.077200
     42 H12         -8.5700   -12.1900     5.0430 hc         1 9Z5       0.077200
     43 H13        -10.4140    -9.3570     4.7050 ha         1 9Z5       0.143000
     44 H14        -10.1140    -7.5160     6.6740 ha         1 9Z5       0.140000
     45 H15         -9.0640    -8.8830     8.8000 h4         1 9Z5       0.051100
     46 H16        -16.4500   -13.8350     4.0790 ha         1 9Z5       0.120000
     47 H17        -18.7230   -14.5600     3.5440 ha         1 9Z5       0.115000
     48 H18        -19.4010   -14.9880     1.1870 ha         1 9Z5       0.114000
     49 H19        -17.7490   -14.6750    -0.6500 ha         1 9Z5       0.115000
     50 H20        -15.4560   -13.9510    -0.1600 ha         1 9Z5       0.120000
     51 H21        -14.4720   -13.3230     4.5270 h4         1 9Z5       0.163000
@<TRIPOS>BOND
     1     1     5 ar  
     2     1     6 ar  
     3     1    31 1   
     4     2     3 ar  
     5     2     6 ar  
     6     2    32 1   
     7     3     4 ar  
     8     3    33 1   
     9     4     5 ar  
    10     4    34 1   
    11     5    35 1   
    12     6     7 1   
    13     7     8 1   
    14     7    36 1   
    15     7    37 1   
    16     8     9 1   
    17     8    27 2   
    18     9    26 2   
    19     9    28 1   
    20    10    11 1   
    21    10    25 2   
    22    10    27 1   
    23    11    20 ar  
    24    11    24 ar  
    25    12    29 1   
    26    12    38 1   
    27    12    39 1   
    28    12    40 1   
    29    13    14 2   
    30    13    28 1   
    31    13    29 1   
    32    14    15 1   
    33    14    26 1   
    34    15    16 1   
    35    15    41 1   
    36    15    42 1   
    37    16    17 2   
    38    16    30 1   
    39    17    18 1   
    40    17    43 1   
    41    18    19 2   
    42    18    44 1   
    43    19    30 1   
    44    19    45 1   
    45    20    21 ar  
    46    20    46 1   
    47    21    22 ar  
    48    21    47 1   
    49    22    23 ar  
    50    22    48 1   
    51    23    24 ar  
    52    23    49 1   
    53    24    50 1   
    54    25    28 1   
    55    25    51 1   
@<TRIPOS>SUBSTRUCTURE
     1 9Z5         1 TEMP              0 ****  ****    0 ROOT
