@<TRIPOS>MOLECULE
9Z5
   51    55     1     0     0
SMALL
abcg2


@<TRIPOS>ATOM
      1 C16         -9.4700   -14.7750     1.0090 ca         1 9Z5      -0.095500
      2 C20        -11.1130   -14.8490    -0.7370 ca         1 9Z5      -0.095500
      3 C19        -10.6550   -16.1040    -1.1160 ca         1 9Z5      -0.114500
      4 C18         -9.6040   -16.6990    -0.4310 ca         1 9Z5      -0.107000
      5 C17         -9.0120   -16.0300     0.6330 ca         1 9Z5      -0.114500
      6 C15        -10.5230   -14.1700     0.3260 ca         1 9Z5      -0.085300
      7 C14        -11.0460   -12.8230     0.7570 c3         1 9Z5      -0.077400
      8 C13        -12.0880   -12.9870     1.8270 cc         1 9Z5       0.426300
      9 C12        -11.7420   -12.7640     3.1800 cc         1 9Z5      -0.134000
     10 C22        -14.2390   -13.5630     2.4500 cd         1 9Z5       0.372500
     11 C23        -15.5650   -14.0080     1.9820 ca         1 9Z5      -0.139500
     12 C01        -13.4060   -11.6340     6.9880 c3         1 9Z5       0.135900
     13 C03        -12.1590   -12.7150     5.3370 cc         1 9Z5       0.002000
     14 C04        -10.8540   -12.3570     5.0740 cd         1 9Z5       0.059400
     15 C05         -9.8220   -11.9580     6.0720 c3         1 9Z5      -0.026500
     16 C06         -9.6840   -10.4760     6.1600 cc         1 9Z5       0.134300
     17 C07        -10.2960    -9.4440     5.5290 cd         1 9Z5      -0.179000
     18 C08         -9.7180    -8.2480     6.0620 cd         1 9Z5      -0.186000
     19 C09         -8.8020    -8.6500     6.9710 cc         1 9Z5       0.118900
     20 C24        -16.7240   -13.7320     2.7090 ca         1 9Z5      -0.083500
     21 C25        -17.9610   -14.1760     2.2650 ca         1 9Z5      -0.116000
     22 C26        -18.0620   -14.8970     1.0820 ca         1 9Z5      -0.098000
     23 C27        -16.9160   -15.1670     0.3460 ca         1 9Z5      -0.116000
     24 C28        -15.6790   -14.7240     0.7890 ca         1 9Z5      -0.083500
     25 C29        -13.9780   -13.3880     3.7750 cc         1 9Z5      -0.148000
     26 N11        -10.6110   -12.3900     3.7440 nd         1 9Z5      -0.259600
     27 N21        -13.2860   -13.3640     1.4930 nd         1 9Z5      -0.666000
     28 N30        -12.7260   -12.9730     4.1230 na         1 9Z5       0.133100
     29 O02        -12.8410   -12.8470     6.4740 os         1 9Z5      -0.313100
     30 O10         -8.7750   -10.0000     7.0380 os         1 9Z5      -0.245000
     31 H1          -9.0050   -14.2570     1.8390 ha         1 9Z5       0.119500
     32 H2         -11.9320   -14.3890    -1.2780 ha         1 9Z5       0.119500
     33 H3         -11.1200   -16.6170    -1.9480 ha         1 9Z5       0.111500
     34 H4          -9.2450   -17.6760    -0.7270 ha         1 9Z5       0.111000
     35 H5          -8.1900   -16.4850     1.1710 ha         1 9Z5       0.111500
     36 H6         -10.2300   -12.2010     1.1270 hc         1 9Z5       0.076200
     37 H7         -11.4980   -12.3070    -0.0910 hc         1 9Z5       0.076200
     38 H8         -13.9340   -11.8960     7.9010 h1         1 9Z5       0.046033
     39 H9         -12.6260   -10.9060     7.2170 h1         1 9Z5       0.046033
     40 H10        -14.1100   -11.1950     6.2790 h1         1 9Z5       0.046033
     41 H11        -10.0790   -12.3680     7.0520 hc         1 9Z5       0.077200
     42 H12         -8.8630   -12.4050     5.7930 hc         1 9Z5       0.077200
     43 H13        -11.0630    -9.5180     4.7760 ha         1 9Z5       0.143000
     44 H14         -9.9560    -7.2310     5.7980 ha         1 9Z5       0.140000
     45 H15         -8.1250    -8.1180     7.6190 h4         1 9Z5       0.051100
     46 H16        -16.6740   -13.1480     3.6190 ha         1 9Z5       0.120000
     47 H17        -18.8490   -13.9470     2.8400 ha         1 9Z5       0.115000
     48 H18        -19.0280   -15.2410     0.7350 ha         1 9Z5       0.114000
     49 H19        -16.9840   -15.7270    -0.5780 ha         1 9Z5       0.115000
     50 H20        -14.7920   -14.9420     0.2090 ha         1 9Z5       0.120000
     51 H21        -14.6800   -13.5740     4.5740 h4         1 9Z5       0.163000
@<TRIPOS>BOND
     1     1     5 ar  
     2     1     6 ar  
     3     1    31 1   
     4     2     3 ar  
     5     2     6 ar  
     6     2    32 1   
     7     3     4 ar  
     8     3    33 1   
     9     4     5 ar  
    10     4    34 1   
    11     5    35 1   
    12     6     7 1   
    13     7     8 1   
    14     7    36 1   
    15     7    37 1   
    16     8     9 1   
    17     8    27 2   
    18     9    26 2   
    19     9    28 1   
    20    10    11 1   
    21    10    25 2   
    22    10    27 1   
    23    11    20 ar  
    24    11    24 ar  
    25    12    29 1   
    26    12    38 1   
    27    12    39 1   
    28    12    40 1   
    29    13    14 2   
    30    13    28 1   
    31    13    29 1   
    32    14    15 1   
    33    14    26 1   
    34    15    16 1   
    35    15    41 1   
    36    15    42 1   
    37    16    17 2   
    38    16    30 1   
    39    17    18 1   
    40    17    43 1   
    41    18    19 2   
    42    18    44 1   
    43    19    30 1   
    44    19    45 1   
    45    20    21 ar  
    46    20    46 1   
    47    21    22 ar  
    48    21    47 1   
    49    22    23 ar  
    50    22    48 1   
    51    23    24 ar  
    52    23    49 1   
    53    24    50 1   
    54    25    28 1   
    55    25    51 1   
@<TRIPOS>SUBSTRUCTURE
     1 9Z5         1 TEMP              0 ****  ****    0 ROOT
