@<TRIPOS>MOLECULE
9Z7
   58    62     1     0     0
SMALL
No Charge or Current Charge


@<TRIPOS>ATOM
      1 C1          17.5010   135.0870    31.7520 ca         1 9Z7       0.224000
      2 C2          17.0060   134.9770    33.0600 ca         1 9Z7      -0.105000
      3 C10         17.1470   138.3140    28.4170 c3         1 9Z7      -0.088100
      4 C11         19.2720   138.0930    29.6680 c2         1 9Z7      -0.211200
      5 C12         19.0360   138.6590    30.8650 c2         1 9Z7      -0.313000
      6 C13         18.8740   134.8370    29.8480 c5         1 9Z7       0.513000
      7 C16         19.1640   132.1810    32.0080 c3         1 9Z7       0.144900
      8 C18         18.3510   133.7170    27.6910 c          1 9Z7       0.570200
      9 C20         16.9500   134.3220    27.7760 ce         1 9Z7       0.019900
     10 C22         16.0380   132.7160    26.0880 c3         1 9Z7       0.146900
     11 C23         16.6360   135.3060    28.6440 c2         1 9Z7      -0.179200
     12 C24         20.6080   133.6110    28.8070 ce         1 9Z7      -0.089600
     13 C25         21.1500   132.5270    28.1660 cf         1 9Z7      -0.165800
     14 C26         22.5540   132.1510    28.0710 cd         1 9Z7       0.255800
     15 C27         23.5180   132.2310    29.0430 cc         1 9Z7      -0.156000
     16 C29         24.3480   131.3600    27.1680 cc         1 9Z7       0.388400
     17 C3          16.0010   135.8670    33.4770 ca         1 9Z7      -0.086000
     18 C31         21.1640   134.7090    29.6640 c          1 9Z7       0.582200
     19 C4          15.4950   136.8220    32.5740 ca         1 9Z7      -0.130000
     20 C5          16.0080   136.9130    31.2640 ca         1 9Z7      -0.062000
     21 C6          17.0650   136.0640    30.8660 ca         1 9Z7      -0.121300
     22 C7          17.7490   135.9530    29.4760 c5         1 9Z7       0.058500
     23 C8          18.2800   137.3120    28.7940 c3         1 9Z7       0.018200
     24 C9          19.0000   136.9830    27.4490 c3         1 9Z7      -0.088100
     25 N14         18.4330   134.2690    31.1370 nh         1 9Z7      -0.544900
     26 N17         19.1820   133.8290    28.8340 n          1 9Z7      -0.319000
     27 N28         24.6610   131.7300    28.4530 na         1 9Z7      -0.313500
     28 N30         23.0700   131.6000    26.9180 nd         1 9Z7      -0.661000
     29 N33         20.1370   135.4460    30.1720 ns         1 9Z7      -0.508900
     30 O15         19.3820   133.6030    32.0050 os         1 9Z7      -0.250300
     31 O19         18.7490   133.1490    26.6820 o          1 9Z7      -0.520000
     32 O21         15.9120   133.8550    26.9620 os         1 9Z7      -0.346100
     33 O32         22.3400   134.9430    29.8920 o          1 9Z7      -0.547000
     34 H1          17.3800   134.2090    33.7300 ha         1 9Z7       0.133000
     35 H2          16.7270   138.8120    29.2940 hc         1 9Z7       0.041867
     36 H3          17.5390   139.1180    27.7820 hc         1 9Z7       0.041867
     37 H4          16.3350   137.8320    27.8620 hc         1 9Z7       0.041867
     38 H5          20.2740   138.1860    29.2400 ha         1 9Z7       0.177000
     39 H6          19.8190   139.1970    31.4010 ha         1 9Z7       0.163000
     40 H7          18.0630   138.6180    31.3510 ha         1 9Z7       0.163000
     41 H8          19.8840   131.6870    32.6720 h1         1 9Z7       0.047367
     42 H9          18.1520   131.9420    32.3610 h1         1 9Z7       0.047367
     43 H10         19.2880   131.7660    31.0000 h1         1 9Z7       0.047367
     44 H12         15.0610   132.4640    25.6570 h1         1 9Z7       0.042700
     45 H13         16.7190   132.9290    25.2550 h1         1 9Z7       0.042700
     46 H14         16.4000   131.8360    26.6360 h1         1 9Z7       0.042700
     47 H15         15.6140   135.6820    28.6820 ha         1 9Z7       0.202000
     48 H17         20.5020   131.8450    27.6210 ha         1 9Z7       0.229000
     49 H18         23.4700   132.5870    30.0650 h4         1 9Z7       0.190000
     50 H19         25.0740   130.9280    26.4880 h5         1 9Z7       0.057100
     51 H20         15.5960   135.7990    34.4850 ha         1 9Z7       0.117000
     52 H21         14.6910   137.4850    32.8850 ha         1 9Z7       0.117000
     53 H22         15.5600   137.6220    30.5790 ha         1 9Z7       0.119000
     54 H23         19.8520   136.3110    27.5920 hc         1 9Z7       0.041867
     55 H24         18.3140   136.5160    26.7320 hc         1 9Z7       0.041867
     56 H25         19.3870   137.8940    26.9770 hc         1 9Z7       0.041867
     57 H26         25.5770   131.6380    28.8780 hn         1 9Z7       0.354000
     58 H28         20.2960   136.1680    30.8550 hn         1 9Z7       0.340500
@<TRIPOS>BOND
     1     1     2 ar  
     2     1    21 ar  
     3     1    25 1   
     4     2    17 ar  
     5     2    34 1   
     6     3    23 1   
     7     3    35 1   
     8     3    36 1   
     9     3    37 1   
    10     4     5 2   
    11     4    23 1   
    12     4    38 1   
    13     5    39 1   
    14     5    40 1   
    15     6    22 1   
    16     6    25 1   
    17     6    26 1   
    18     6    29 1   
    19     7    30 1   
    20     7    41 1   
    21     7    42 1   
    22     7    43 1   
    23     8     9 1   
    24     8    26 1   
    25     8    31 2   
    26     9    11 2   
    27     9    32 1   
    28    10    32 1   
    29    10    44 1   
    30    10    45 1   
    31    10    46 1   
    32    11    22 1   
    33    11    47 1   
    34    12    13 2   
    35    12    18 1   
    36    12    26 1   
    37    13    14 1   
    38    13    48 1   
    39    14    15 2   
    40    14    28 1   
    41    15    27 1   
    42    15    49 1   
    43    16    27 1   
    44    16    28 2   
    45    16    50 1   
    46    17    19 ar  
    47    17    51 1   
    48    18    29 1   
    49    18    33 2   
    50    19    20 ar  
    51    19    52 1   
    52    20    21 ar  
    53    20    53 1   
    54    21    22 1   
    55    22    23 1   
    56    23    24 1   
    57    24    54 1   
    58    24    55 1   
    59    24    56 1   
    60    25    30 1   
    61    27    57 1   
    62    29    58 1   
@<TRIPOS>SUBSTRUCTURE
     1 9Z7         1 TEMP              0 ****  ****    0 ROOT
