@<TRIPOS>MOLECULE
9Z7
   58    62     1     0     0
SMALL
abcg2


@<TRIPOS>ATOM
      1 C1          17.4200   135.0100    31.8010 ca         1 9Z7       0.224000
      2 C2          16.9600   134.9420    33.1060 ca         1 9Z7      -0.105000
      3 C10         17.1170   137.8070    28.1130 c3         1 9Z7      -0.088100
      4 C11         19.0780   138.0300    29.6860 c2         1 9Z7      -0.211200
      5 C12         18.7210   139.2530    30.0610 c2         1 9Z7      -0.313000
      6 C13         18.8550   134.7550    30.0010 c5         1 9Z7       0.513000
      7 C16         18.7270   131.8780    31.7470 c3         1 9Z7       0.144900
      8 C18         18.2990   133.2720    28.1230 c          1 9Z7       0.570200
      9 C20         16.9640   133.9290    28.1630 ce         1 9Z7       0.019900
     10 C22         15.9100   133.5730    26.0820 c3         1 9Z7       0.146900
     11 C23         16.7450   135.0900    28.7770 c2         1 9Z7      -0.179200
     12 C24         20.6340   133.5610    28.9850 ce         1 9Z7      -0.089600
     13 C25         21.2790   132.6470    28.2300 cf         1 9Z7      -0.165800
     14 C26         22.6740   132.3090    28.1190 cd         1 9Z7       0.255800
     15 C27         23.8310   132.7720    28.7220 cc         1 9Z7      -0.156000
     16 C29         24.3170   131.1740    27.2810 cc         1 9Z7       0.388400
     17 C3          16.1780   135.9980    33.5700 ca         1 9Z7      -0.086000
     18 C31         21.1800   134.5010    29.9900 c          1 9Z7       0.582200
     19 C4          15.8700   137.0750    32.7420 ca         1 9Z7      -0.130000
     20 C5          16.3490   137.1250    31.4310 ca         1 9Z7      -0.062000
     21 C6          17.1460   136.0940    30.9620 ca         1 9Z7      -0.121300
     22 C7          17.7800   135.8260    29.5930 c5         1 9Z7       0.058500
     23 C8          18.3040   137.0920    28.7840 c3         1 9Z7       0.018200
     24 C9          19.2470   136.6510    27.6450 c3         1 9Z7      -0.088100
     25 N14         18.1500   134.0370    31.1010 nh         1 9Z7      -0.544900
     26 N17         19.2410   133.8200    28.9520 n          1 9Z7      -0.319000
     27 N28         24.8500   132.0450    28.1800 na         1 9Z7      -0.313500
     28 N30         23.0150   131.3010    27.2150 nd         1 9Z7      -0.661000
     29 N33         20.1290   135.2500    30.4270 ns         1 9Z7      -0.508900
     30 O15         19.0240   133.2730    31.8950 os         1 9Z7      -0.250300
     31 O19         18.5350   132.3370    27.3670 o          1 9Z7      -0.520000
     32 O21         15.9680   133.2780    27.4890 os         1 9Z7      -0.346100
     33 O32         22.3350   134.6280    30.3690 o          1 9Z7      -0.547000
     34 H1          17.2030   134.0980    33.7360 ha         1 9Z7       0.133000
     35 H2          16.3270   138.0840    28.8070 hc         1 9Z7       0.041867
     36 H3          17.4780   138.7160    27.6330 hc         1 9Z7       0.041867
     37 H4          16.6790   137.1760    27.3410 hc         1 9Z7       0.041867
     38 H5          20.0410   137.6590    30.0130 ha         1 9Z7       0.177000
     39 H6          19.3740   139.8480    30.6880 ha         1 9Z7       0.163000
     40 H7          17.7820   139.7060    29.7710 ha         1 9Z7       0.163000
     41 H8          19.4240   131.3660    32.4080 h1         1 9Z7       0.047367
     42 H9          17.7000   131.6710    32.0510 h1         1 9Z7       0.047367
     43 H10         18.8850   131.5530    30.7170 h1         1 9Z7       0.047367
     44 H12         15.1010   132.9700    25.6750 h1         1 9Z7       0.042700
     45 H13         15.6940   134.6330    25.9310 h1         1 9Z7       0.042700
     46 H14         16.8500   133.3110    25.5940 h1         1 9Z7       0.042700
     47 H15         15.7640   135.5410    28.7060 ha         1 9Z7       0.202000
     48 H17         20.6540   132.0560    27.5790 ha         1 9Z7       0.229000
     49 H18         23.9850   133.5290    29.4640 h4         1 9Z7       0.190000
     50 H19         24.9230   130.4850    26.7150 h5         1 9Z7       0.057100
     51 H20         15.8060   135.9770    34.5860 ha         1 9Z7       0.117000
     52 H21         15.2610   137.8870    33.1170 ha         1 9Z7       0.117000
     53 H22         16.1100   137.9760    30.8130 ha         1 9Z7       0.119000
     54 H23         20.1840   136.2410    28.0160 hc         1 9Z7       0.041867
     55 H24         18.7670   135.9130    27.0030 hc         1 9Z7       0.041867
     56 H25         19.4850   137.5220    27.0340 hc         1 9Z7       0.041867
     57 H26         25.8280   132.1390    28.4100 hn         1 9Z7       0.354000
     58 H28         20.2160   135.8140    31.2580 hn         1 9Z7       0.340500
@<TRIPOS>BOND
     1     1     2 ar  
     2     1    21 ar  
     3     1    25 1   
     4     2    17 ar  
     5     2    34 1   
     6     3    23 1   
     7     3    35 1   
     8     3    36 1   
     9     3    37 1   
    10     4     5 2   
    11     4    23 1   
    12     4    38 1   
    13     5    39 1   
    14     5    40 1   
    15     6    22 1   
    16     6    25 1   
    17     6    26 1   
    18     6    29 1   
    19     7    30 1   
    20     7    41 1   
    21     7    42 1   
    22     7    43 1   
    23     8     9 1   
    24     8    26 1   
    25     8    31 2   
    26     9    11 2   
    27     9    32 1   
    28    10    32 1   
    29    10    44 1   
    30    10    45 1   
    31    10    46 1   
    32    11    22 1   
    33    11    47 1   
    34    12    13 2   
    35    12    18 1   
    36    12    26 1   
    37    13    14 1   
    38    13    48 1   
    39    14    15 2   
    40    14    28 1   
    41    15    27 1   
    42    15    49 1   
    43    16    27 1   
    44    16    28 2   
    45    16    50 1   
    46    17    19 ar  
    47    17    51 1   
    48    18    29 1   
    49    18    33 2   
    50    19    20 ar  
    51    19    52 1   
    52    20    21 ar  
    53    20    53 1   
    54    21    22 1   
    55    22    23 1   
    56    23    24 1   
    57    24    54 1   
    58    24    55 1   
    59    24    56 1   
    60    25    30 1   
    61    27    57 1   
    62    29    58 1   
@<TRIPOS>SUBSTRUCTURE
     1 9Z7         1 TEMP              0 ****  ****    0 ROOT
