@<TRIPOS>MOLECULE
9Z8
   39    39     1     0     0
SMALL
No Charge or Current Charge


@<TRIPOS>ATOM
      1 O01          6.0620    -1.3450     0.1150 o          1 9Z8      -0.575100
      2 C02          5.7170    -0.2420    -0.2890 c          1 9Z8       0.611100
      3 C03          6.6820     0.7880    -0.9130 c3         1 9Z8      -0.036400
      4 S04          8.4560     0.2090    -1.0050 sh         1 9Z8      -0.350800
      5 N05          4.4070     0.1780    -0.2180 ns         1 9Z8      -0.510900
      6 C06          3.3140    -0.6230     0.3320 c3         1 9Z8       0.107000
      7 C07          1.9700     0.1270     0.2610 c3         1 9Z8      -0.095400
      8 C08          0.7940    -0.6940     0.8350 c3         1 9Z8      -0.075400
      9 C09         -0.5550     0.0540     0.7650 c3         1 9Z8      -0.065400
     10 C10         -1.7320    -0.7690     1.3410 c3         1 9Z8      -0.160400
     11 C11         -3.0590    -0.0010     1.2540 c          1 9Z8       0.607100
     12 O12         -3.3060     0.9320     2.0100 o          1 9Z8      -0.578100
     13 N13         -3.9340    -0.4850     0.2890 ns         1 9Z8      -0.151000
     14 C14         -5.2330    -0.0760    -0.1210 ca         1 9Z8      -0.019000
     15 C15         -5.8870     1.0730     0.3810 ca         1 9Z8      -0.151000
     16 C16         -7.1720     1.4160    -0.0750 ca         1 9Z8      -0.083500
     17 C17         -7.8160     0.6200    -1.0350 ca         1 9Z8      -0.137000
     18 C18         -7.1740    -0.5210    -1.5420 ca         1 9Z8      -0.083500
     19 C19         -5.8890    -0.8630    -1.0870 ca         1 9Z8      -0.151000
     20 H031         6.3270     1.0180    -1.9250 h1         1 9Z8       0.072200
     21 H032         6.6350     1.7050    -0.3130 h1         1 9Z8       0.072200
     22 H05          4.2000     1.1050    -0.5740 hn         1 9Z8       0.312500
     23 H061         3.2420    -1.5620    -0.2330 h1         1 9Z8       0.053200
     24 H062         3.5440    -0.8670     1.3780 h1         1 9Z8       0.053200
     25 H071         2.0560     1.0710     0.8130 hc         1 9Z8       0.045700
     26 H072         1.7560     0.3810    -0.7850 hc         1 9Z8       0.045700
     27 H081         0.7120    -1.6390     0.2840 hc         1 9Z8       0.042200
     28 H082         1.0110    -0.9500     1.8800 hc         1 9Z8       0.042200
     29 H091        -0.4720     1.0010     1.3150 hc         1 9Z8       0.057200
     30 H092        -0.7720     0.3110    -0.2800 hc         1 9Z8       0.057200
     31 H101        -1.8060    -1.7090     0.7800 hc         1 9Z8       0.059200
     32 H102        -1.5220    -0.9840     2.3960 hc         1 9Z8       0.059200
     33 H13         -3.5770    -1.2770    -0.2290 hn         1 9Z8       0.147000
     34 H15         -5.4170     1.7150     1.1180 ha         1 9Z8       0.126000
     35 H19         -5.4020    -1.7500    -1.4880 ha         1 9Z8       0.126000
     36 H16         -7.6680     2.3020     0.3160 ha         1 9Z8       0.113000
     37 H17         -8.8100     0.8870    -1.3870 ha         1 9Z8       0.115000
     38 H18         -7.6700    -1.1390    -2.2880 ha         1 9Z8       0.113000
     39 H32          8.9560     1.3300    -1.5790 hs         1 9Z8       0.180800
@<TRIPOS>BOND
     1     1     2 2   
     2     2     3 1   
     3     2     5 1   
     4     3     4 1   
     5     3    20 1   
     6     3    21 1   
     7     4    39 1   
     8     5     6 1   
     9     5    22 1   
    10     6     7 1   
    11     6    23 1   
    12     6    24 1   
    13     7     8 1   
    14     7    25 1   
    15     7    26 1   
    16     8     9 1   
    17     8    27 1   
    18     8    28 1   
    19     9    10 1   
    20     9    29 1   
    21     9    30 1   
    22    10    11 1   
    23    10    31 1   
    24    10    32 1   
    25    11    12 2   
    26    11    13 1   
    27    13    14 1   
    28    13    33 1   
    29    14    15 ar  
    30    14    19 ar  
    31    15    16 ar  
    32    15    34 1   
    33    16    17 ar  
    34    16    36 1   
    35    17    18 ar  
    36    17    37 1   
    37    18    19 ar  
    38    18    38 1   
    39    19    35 1   
@<TRIPOS>SUBSTRUCTURE
     1 9Z8         1 TEMP              0 ****  ****    0 ROOT
