@<TRIPOS>MOLECULE
9Z8
   39    39     1     0     0
SMALL
abcg2


@<TRIPOS>ATOM
      1 O01          6.0670    -1.4380    -0.0120 o          1 9Z8      -0.575100
      2 C02          5.8050    -0.2450    -0.0170 c          1 9Z8       0.611100
      3 C03          6.8910     0.8130    -0.0480 c3         1 9Z8      -0.036400
      4 S04          8.4990    -0.0240    -0.0190 sh         1 9Z8      -0.350800
      5 N05          4.5580     0.2380     0.0050 ns         1 9Z8      -0.510900
      6 C06          3.3800    -0.6070     0.0360 c3         1 9Z8       0.107000
      7 C07          2.1200     0.2430     0.0220 c3         1 9Z8      -0.095400
      8 C08          0.8560    -0.6040     0.0680 c3         1 9Z8      -0.075400
      9 C09         -0.4070     0.2490     0.0350 c3         1 9Z8      -0.065400
     10 C10         -1.6670    -0.5970     0.1110 c3         1 9Z8      -0.160400
     11 C11         -2.9450     0.2140     0.0620 c          1 9Z8       0.607100
     12 O12         -2.9580     1.4310     0.0780 o          1 9Z8      -0.578100
     13 N13         -4.0680    -0.5520     0.0060 ns         1 9Z8      -0.151000
     14 C14         -5.4110    -0.1650    -0.0080 ca         1 9Z8      -0.019000
     15 C15         -5.8510     1.1580    -0.0890 ca         1 9Z8      -0.151000
     16 C16         -7.2140     1.4290    -0.1020 ca         1 9Z8      -0.083500
     17 C17         -8.1540     0.4120    -0.0360 ca         1 9Z8      -0.137000
     18 C18         -7.7140    -0.9030     0.0430 ca         1 9Z8      -0.083500
     19 C19         -6.3610    -1.1900     0.0570 ca         1 9Z8      -0.151000
     20 H031         6.7920     1.4210    -0.9490 h1         1 9Z8       0.072200
     21 H032         6.7890     1.4780     0.8100 h1         1 9Z8       0.072200
     22 H05          4.4260     1.2380     0.0000 hn         1 9Z8       0.312500
     23 H061         3.3830    -1.2810    -0.8240 h1         1 9Z8       0.053200
     24 H062         3.3960    -1.2330     0.9330 h1         1 9Z8       0.053200
     25 H071         2.1310     0.9270     0.8770 hc         1 9Z8       0.045700
     26 H072         2.1110     0.8650    -0.8790 hc         1 9Z8       0.045700
     27 H081         0.8500    -1.3010    -0.7760 hc         1 9Z8       0.042200
     28 H082         0.8610    -1.2190     0.9740 hc         1 9Z8       0.042200
     29 H091        -0.3850     0.9580     0.8670 hc         1 9Z8       0.057200
     30 H092        -0.4140     0.8470    -0.8800 hc         1 9Z8       0.057200
     31 H101        -1.6810    -1.3300    -0.7020 hc         1 9Z8       0.059200
     32 H102        -1.6700    -1.1840     1.0360 hc         1 9Z8       0.059200
     33 H13         -3.9190    -1.5510     0.0100 hn         1 9Z8       0.147000
     34 H15         -5.1480     1.9710    -0.1440 ha         1 9Z8       0.126000
     35 H19         -6.0330    -2.2210     0.1200 ha         1 9Z8       0.126000
     36 H16         -7.5370     2.4610    -0.1670 ha         1 9Z8       0.113000
     37 H17         -9.2120     0.6380    -0.0460 ha         1 9Z8       0.115000
     38 H18         -8.4280    -1.7150     0.0940 ha         1 9Z8       0.113000
     39 H32          9.2320     1.0950    -0.0490 hs         1 9Z8       0.180800
@<TRIPOS>BOND
     1     1     2 2   
     2     2     3 1   
     3     2     5 1   
     4     3     4 1   
     5     3    20 1   
     6     3    21 1   
     7     4    39 1   
     8     5     6 1   
     9     5    22 1   
    10     6     7 1   
    11     6    23 1   
    12     6    24 1   
    13     7     8 1   
    14     7    25 1   
    15     7    26 1   
    16     8     9 1   
    17     8    27 1   
    18     8    28 1   
    19     9    10 1   
    20     9    29 1   
    21     9    30 1   
    22    10    11 1   
    23    10    31 1   
    24    10    32 1   
    25    11    12 2   
    26    11    13 1   
    27    13    14 1   
    28    13    33 1   
    29    14    15 ar  
    30    14    19 ar  
    31    15    16 ar  
    32    15    34 1   
    33    16    17 ar  
    34    16    36 1   
    35    17    18 ar  
    36    17    37 1   
    37    18    19 ar  
    38    18    38 1   
    39    19    35 1   
@<TRIPOS>SUBSTRUCTURE
     1 9Z8         1 TEMP              0 ****  ****    0 ROOT
