@<TRIPOS>MOLECULE
9Z9
   95   100     1     0     0
SMALL
No Charge or Current Charge


@<TRIPOS>ATOM
      1 C01         -3.8990    -1.0870     1.8140 c3         1 9Z9      -0.082100
      2 C02         -3.5860    -0.9810     0.2720 c5         1 9Z9      -0.036000
      3 C03         -4.8160    -0.5180    -0.6520 c5         1 9Z9      -0.087700
      4 C04         -4.9170     1.0190    -0.4280 c5         1 9Z9       0.160300
      5 C05         -3.5780     1.4460     0.2540 c5         1 9Z9      -0.071400
      6 C06         -2.6660     0.2290    -0.0870 c5         1 9Z9      -0.064700
      7 C07         -1.2530     0.1750     0.5600 c6         1 9Z9      -0.040700
      8 C08         -0.5140    -1.1760     0.1830 c6         1 9Z9      -0.046700
      9 C09         -1.4310    -2.4180     0.4890 c6         1 9Z9      -0.071400
     10 C10         -2.8430    -2.3050    -0.1550 c6         1 9Z9      -0.062400
     11 C11          0.9720    -1.3090     0.7850 c6         1 9Z9       0.003200
     12 C12          0.9310    -1.5360     2.3340 c3         1 9Z9      -0.079100
     13 C13          1.7570     0.0090     0.5510 c2         1 9Z9      -0.108400
     14 C14          1.1680     1.1830     0.2520 c2         1 9Z9      -0.216200
     15 C15         -0.3540     1.3760     0.0920 c6         1 9Z9      -0.038200
     16 C16          3.2790    -0.0610     0.7250 c6         1 9Z9      -0.068200
     17 C17          3.9180    -1.2500    -0.0370 c6         1 9Z9       0.177300
     18 C18          3.2230    -2.5660     0.3630 c6         1 9Z9      -0.072400
     19 C19          1.7040    -2.5020     0.0780 c6         1 9Z9      -0.066400
     20 O20          5.3330    -1.3650     0.2260 os         1 9Z9      -0.466000
     21 C21          6.1850    -0.3040    -0.2390 c3         1 9Z9       0.164600
     22 C22          7.6430    -0.7230     0.0470 c3         1 9Z9      -0.082400
     23 C23          8.7250     0.2410    -0.5210 c3         1 9Z9      -0.061700
     24 C24          8.6340     1.6540     0.1250 c3         1 9Z9       0.166100
     25 O25          9.4460     2.5770    -0.6180 os         1 9Z9      -0.434500
     26 C26          9.4530     3.9160    -0.0980 c3         1 9Z9       0.146400
     27 C48         10.1340    -0.3940    -0.3570 c3         1 9Z9       0.166100
     28 O49         11.0550     0.2330    -1.2660 os         1 9Z9      -0.434500
     29 C50         12.4000    -0.2650    -1.1900 c3         1 9Z9       0.146400
     30 O72         -6.0300     1.1780     0.4680 os         1 9Z9      -0.466000
     31 C73         -7.0330     0.2340     0.0380 c5         1 9Z9       0.385000
     32 C74         -6.2040    -1.0830    -0.1700 c5         1 9Z9      -0.064700
     33 C75         -6.8190    -2.1490    -1.1120 c3         1 9Z9      -0.072100
     34 C76         -8.1850     0.1110     1.0700 c6         1 9Z9      -0.083400
     35 C77         -9.0920     1.3560     1.0780 c6         1 9Z9      -0.069400
     36 C78         -9.6320     1.6040    -0.3460 c6         1 9Z9      -0.098700
     37 C79         -8.4600     1.7430    -1.3530 c6         1 9Z9       0.165600
     38 O80         -7.5060     0.6560    -1.2730 os         1 9Z9      -0.473000
     39 C81        -10.5690     2.8400    -0.3940 c3         1 9Z9      -0.085100
     40 H1          -4.3660    -2.0480     2.0590 hc         1 9Z9       0.036367
     41 H2          -3.0010    -1.0210     2.4350 hc         1 9Z9       0.036367
     42 H3          -4.5820    -0.3060     2.1660 hc         1 9Z9       0.036367
     43 H4          -4.6320    -0.7310    -1.7110 hc         1 9Z9       0.063700
     44 H5          -5.1060     1.5580    -1.3670 h1         1 9Z9       0.051700
     45 H6          -3.1920     2.3780    -0.1740 hc         1 9Z9       0.055700
     46 H7          -3.6800     1.6120     1.3320 hc         1 9Z9       0.055700
     47 H8          -2.4660     0.2330    -1.1660 hc         1 9Z9       0.042700
     48 H9          -1.3480     0.2370     1.6510 hc         1 9Z9       0.056700
     49 H10         -0.3990    -1.1510    -0.9100 hc         1 9Z9       0.045700
     50 H11         -0.9650    -3.3360     0.1100 hc         1 9Z9       0.040700
     51 H12         -1.5380    -2.5640     1.5700 hc         1 9Z9       0.040700
     52 H13         -3.4500    -3.1820     0.1070 hc         1 9Z9       0.040700
     53 H14         -2.7380    -2.3270    -1.2480 hc         1 9Z9       0.040700
     54 H15          0.4720    -2.4960     2.5950 hc         1 9Z9       0.035033
     55 H16          1.9320    -1.5430     2.7770 hc         1 9Z9       0.035033
     56 H17          0.3670    -0.7480     2.8440 hc         1 9Z9       0.035033
     57 H18          1.7660     2.0850     0.1140 ha         1 9Z9       0.169000
     58 H19         -0.5480     1.5890    -0.9680 hc         1 9Z9       0.047200
     59 H20         -0.6590     2.2810     0.6360 hc         1 9Z9       0.047200
     60 H21          3.7290     0.8810     0.3880 hc         1 9Z9       0.051700
     61 H22          3.5200    -0.1450     1.7930 hc         1 9Z9       0.051700
     62 H23          3.7780    -1.0960    -1.1180 h1         1 9Z9       0.034700
     63 H24          3.6640    -3.3980    -0.2020 hc         1 9Z9       0.052700
     64 H25          3.4060    -2.7830     1.4240 hc         1 9Z9       0.052700
     65 H26          1.2570    -3.4590     0.3770 hc         1 9Z9       0.042200
     66 H27          1.5620    -2.4280    -1.0090 hc         1 9Z9       0.042200
     67 H28          6.0530    -0.1480    -1.3180 h1         1 9Z9       0.023200
     68 H29          5.9580     0.6330     0.2820 h1         1 9Z9       0.023200
     69 H30          7.7790    -0.8250     1.1310 hc         1 9Z9       0.054700
     70 H31          7.7960    -1.7200    -0.3850 hc         1 9Z9       0.054700
     71 H32          8.5290     0.3470    -1.5950 hc         1 9Z9       0.073700
     72 H33          7.5940     2.0020     0.1170 h1         1 9Z9       0.017200
     73 H34          8.9630     1.5990     1.1720 h1         1 9Z9       0.017200
     74 H35         10.0920     4.5610    -0.7150 h1         1 9Z9       0.025700
     75 H36          8.4390     4.3390    -0.0970 h1         1 9Z9       0.025700
     76 H37          9.8390     3.9340     0.9290 h1         1 9Z9       0.025700
     77 H38         10.4700    -0.2850     0.6830 h1         1 9Z9       0.017200
     78 H39         10.0780    -1.4680    -0.5810 h1         1 9Z9       0.017200
     79 H40         12.8150    -0.1120    -0.1850 h1         1 9Z9       0.025700
     80 H41         12.4310    -1.3380    -1.4200 h1         1 9Z9       0.025700
     81 H42         13.0410     0.2590    -1.9090 h1         1 9Z9       0.025700
     82 H43         -6.1450    -1.5950     0.7920 hc         1 9Z9       0.061700
     83 H44         -6.1830    -3.0410    -1.1550 hc         1 9Z9       0.038033
     84 H45         -7.8090    -2.4630    -0.7620 hc         1 9Z9       0.038033
     85 H46         -6.9270    -1.7710    -2.1350 hc         1 9Z9       0.038033
     86 H47         -8.7860    -0.7800     0.8420 hc         1 9Z9       0.055200
     87 H48         -7.7650    -0.0500     2.0720 hc         1 9Z9       0.055200
     88 H49         -9.9220     1.2100     1.7830 hc         1 9Z9       0.047700
     89 H50         -8.5250     2.2300     1.4290 hc         1 9Z9       0.047700
     90 H51        -10.2430     0.7420    -0.6480 hc         1 9Z9       0.053700
     91 H52         -8.8470     1.8000    -2.3800 h1         1 9Z9       0.047200
     92 H53         -7.9220     2.6810    -1.1500 h1         1 9Z9       0.047200
     93 H54        -10.0390     3.7560    -0.1070 hc         1 9Z9       0.034367
     94 H55        -10.9740     2.9900    -1.4020 hc         1 9Z9       0.034367
     95 H56        -11.4200     2.7180     0.2880 hc         1 9Z9       0.034367
@<TRIPOS>BOND
     1     1     2 1   
     2     1    40 1   
     3     1    41 1   
     4     1    42 1   
     5     2     3 1   
     6     2     6 1   
     7     2    10 1   
     8     3     4 1   
     9     3    32 1   
    10     3    43 1   
    11     4     5 1   
    12     4    30 1   
    13     4    44 1   
    14     5     6 1   
    15     5    45 1   
    16     5    46 1   
    17     6     7 1   
    18     6    47 1   
    19     7     8 1   
    20     7    15 1   
    21     7    48 1   
    22     8     9 1   
    23     8    11 1   
    24     8    49 1   
    25     9    10 1   
    26     9    50 1   
    27     9    51 1   
    28    10    52 1   
    29    10    53 1   
    30    11    12 1   
    31    11    13 1   
    32    11    19 1   
    33    12    54 1   
    34    12    55 1   
    35    12    56 1   
    36    13    14 2   
    37    13    16 1   
    38    14    15 1   
    39    14    57 1   
    40    15    58 1   
    41    15    59 1   
    42    16    17 1   
    43    16    60 1   
    44    16    61 1   
    45    17    18 1   
    46    17    20 1   
    47    17    62 1   
    48    18    19 1   
    49    18    63 1   
    50    18    64 1   
    51    19    65 1   
    52    19    66 1   
    53    20    21 1   
    54    21    22 1   
    55    21    67 1   
    56    21    68 1   
    57    22    23 1   
    58    22    69 1   
    59    22    70 1   
    60    23    24 1   
    61    23    27 1   
    62    23    71 1   
    63    24    25 1   
    64    24    72 1   
    65    24    73 1   
    66    25    26 1   
    67    26    74 1   
    68    26    75 1   
    69    26    76 1   
    70    27    28 1   
    71    27    77 1   
    72    27    78 1   
    73    28    29 1   
    74    29    79 1   
    75    29    80 1   
    76    29    81 1   
    77    30    31 1   
    78    31    32 1   
    79    31    34 1   
    80    31    38 1   
    81    32    33 1   
    82    32    82 1   
    83    33    83 1   
    84    33    84 1   
    85    33    85 1   
    86    34    35 1   
    87    34    86 1   
    88    34    87 1   
    89    35    36 1   
    90    35    88 1   
    91    35    89 1   
    92    36    37 1   
    93    36    39 1   
    94    36    90 1   
    95    37    38 1   
    96    37    91 1   
    97    37    92 1   
    98    39    93 1   
    99    39    94 1   
   100    39    95 1   
@<TRIPOS>SUBSTRUCTURE
     1 9Z9         1 TEMP              0 ****  ****    0 ROOT
