@<TRIPOS>MOLECULE
9Z9
   95   100     1     0     0
SMALL
bcc


@<TRIPOS>ATOM
      1 C01         -3.7380    -0.9810     1.7270 c3         1 9Z9      -0.082100
      2 C02         -3.4700    -1.0230     0.2170 c5         1 9Z9      -0.036000
      3 C03         -4.7390    -0.6960    -0.5990 c5         1 9Z9      -0.087700
      4 C04         -4.7970     0.8520    -0.6130 c5         1 9Z9       0.137100
      5 C05         -3.4510     1.3640    -0.0880 c5         1 9Z9      -0.071400
      6 C06         -2.5620     0.1300    -0.2350 c5         1 9Z9      -0.064700
      7 C07         -1.1710     0.1300     0.3780 c6         1 9Z9      -0.040700
      8 C08         -0.4890    -1.2210     0.0970 c6         1 9Z9      -0.046700
      9 C09         -1.3870    -2.4120     0.4630 c6         1 9Z9      -0.071400
     10 C10         -2.7840    -2.3330    -0.1540 c6         1 9Z9      -0.062400
     11 C11          0.9230    -1.3120     0.7330 c6         1 9Z9       0.003200
     12 C12          0.8430    -1.5380     2.2510 c3         1 9Z9      -0.079100
     13 C13          1.7040    -0.0350     0.4700 c2         1 9Z9      -0.108400
     14 C14          1.1310     1.0870     0.0380 c2         1 9Z9      -0.166200
     15 C15         -0.3320     1.2630    -0.2010 c6         1 9Z9      -0.038200
     16 C16          3.1900    -0.0780     0.7240 c6         1 9Z9      -0.068200
     17 C17          3.8530    -1.2540     0.0070 c6         1 9Z9       0.154100
     18 C18          3.1650    -2.5440     0.4090 c6         1 9Z9      -0.072400
     19 C19          1.6800    -2.4830     0.0730 c6         1 9Z9      -0.066400
     20 O20          5.2270    -1.3710     0.3140 os         1 9Z9      -0.419600
     21 C21          6.0560    -0.4200    -0.3130 c3         1 9Z9       0.141400
     22 C22          7.4980    -0.7090     0.0660 c3         1 9Z9      -0.082400
     23 C23          8.4840     0.3140    -0.5130 c3         1 9Z9      -0.061700
     24 C24          8.4430     1.5920     0.3160 c3         1 9Z9       0.142900
     25 O25          9.0330     2.6650    -0.3690 os         1 9Z9      -0.388100
     26 C26          8.9440     3.8670     0.3470 c3         1 9Z9       0.123200
     27 C48          9.8660    -0.3220    -0.5590 c3         1 9Z9       0.142900
     28 O49         10.8060     0.5410    -1.1400 os         1 9Z9      -0.388100
     29 C50         12.0930    -0.0180    -1.1730 c3         1 9Z9       0.123200
     30 O72         -5.8920     1.1900     0.2250 os         1 9Z9      -0.419600
     31 C73         -6.8850     0.2130     0.0350 c5         1 9Z9       0.338600
     32 C74         -6.1120    -1.1190    -0.0630 c5         1 9Z9      -0.064700
     33 C75         -6.7980    -2.2090    -0.8700 c3         1 9Z9      -0.072100
     34 C76         -7.8690     0.2750     1.1940 c6         1 9Z9      -0.083400
     35 C77         -8.7220     1.5390     1.1590 c6         1 9Z9      -0.069400
     36 C78         -9.3730     1.7050    -0.2110 c6         1 9Z9      -0.098700
     37 C79         -8.2970     1.6120    -1.2820 c6         1 9Z9       0.142400
     38 O80         -7.5420     0.4180    -1.1910 os         1 9Z9      -0.426600
     39 C81        -10.1360     3.0160    -0.3370 c3         1 9Z9      -0.085100
     40 H1          -4.2650    -1.8800     2.0520 hc         1 9Z9       0.036367
     41 H2          -2.8180    -0.9340     2.3090 hc         1 9Z9       0.036367
     42 H3          -4.3470    -0.1270     2.0230 hc         1 9Z9       0.036367
     43 H4          -4.5920    -1.0730    -1.6170 hc         1 9Z9       0.063700
     44 H5          -4.9760     1.2290    -1.6270 h1         1 9Z9       0.051700
     45 H6          -3.0870     2.2230    -0.6530 hc         1 9Z9       0.055700
     46 H7          -3.5260     1.6750     0.9580 hc         1 9Z9       0.055700
     47 H8          -2.4080    -0.0180    -1.3170 hc         1 9Z9       0.042700
     48 H9          -1.2450     0.2790     1.4610 hc         1 9Z9       0.056700
     49 H10         -0.3390    -1.2590    -0.9930 hc         1 9Z9       0.045700
     50 H11         -0.9150    -3.3420     0.1410 hc         1 9Z9       0.040700
     51 H12         -1.4850    -2.4900     1.5480 hc         1 9Z9       0.040700
     52 H13         -3.3760    -3.1940     0.1730 hc         1 9Z9       0.040700
     53 H14         -2.7080    -2.4010    -1.2460 hc         1 9Z9       0.040700
     54 H15          0.4750    -2.5370     2.4860 hc         1 9Z9       0.035033
     55 H16          1.8150    -1.4360     2.7320 hc         1 9Z9       0.035033
     56 H17          0.1780    -0.8140     2.7250 hc         1 9Z9       0.035033
     57 H18          1.7620     1.9510    -0.1560 ha         1 9Z9       0.119000
     58 H19         -0.5140     1.3460    -1.2810 hc         1 9Z9       0.047200
     59 H20         -0.6540     2.2210     0.2170 hc         1 9Z9       0.047200
     60 H21          3.6300     0.8720     0.4110 hc         1 9Z9       0.051700
     61 H22          3.3960    -0.1790     1.7960 hc         1 9Z9       0.051700
     62 H23          3.7310    -1.1120    -1.0800 h1         1 9Z9       0.034700
     63 H24          3.6210    -3.3900    -0.1110 hc         1 9Z9       0.052700
     64 H25          3.3100    -2.7160     1.4800 hc         1 9Z9       0.052700
     65 H26          1.2140    -3.4290     0.3600 hc         1 9Z9       0.042200
     66 H27          1.5690    -2.4010    -1.0130 hc         1 9Z9       0.042200
     67 H28          5.9450    -0.4770    -1.4050 h1         1 9Z9       0.023200
     68 H29          5.7790     0.6000    -0.0210 h1         1 9Z9       0.023200
     69 H30          7.5940    -0.7390     1.1560 hc         1 9Z9       0.054700
     70 H31          7.7530    -1.7090    -0.2970 hc         1 9Z9       0.054700
     71 H32          8.1760     0.5520    -1.5390 hc         1 9Z9       0.073700
     72 H33          7.4000     1.8410     0.5640 h1         1 9Z9       0.017200
     73 H34          8.9460     1.4150     1.2820 h1         1 9Z9       0.017200
     74 H35          9.3860     4.6570    -0.2600 h1         1 9Z9       0.025700
     75 H36          7.9040     4.1430     0.5660 h1         1 9Z9       0.025700
     76 H37          9.4840     3.8220     1.3010 h1         1 9Z9       0.025700
     77 H38         10.1710    -0.5970     0.4640 h1         1 9Z9       0.017200
     78 H39          9.8060    -1.2630    -1.1290 h1         1 9Z9       0.017200
     79 H40         12.4620    -0.2650    -0.1710 h1         1 9Z9       0.025700
     80 H41         12.1310    -0.9340    -1.7770 h1         1 9Z9       0.025700
     81 H42         12.7680     0.7130    -1.6170 h1         1 9Z9       0.025700
     82 H43         -6.0100    -1.4840     0.9620 hc         1 9Z9       0.061700
     83 H44         -6.2180    -3.1320    -0.8200 hc         1 9Z9       0.038033
     84 H45         -7.7940    -2.4310    -0.4810 hc         1 9Z9       0.038033
     85 H46         -6.8980    -1.9400    -1.9210 hc         1 9Z9       0.038033
     86 H47         -8.5170    -0.6050     1.1310 hc         1 9Z9       0.055200
     87 H48         -7.3250     0.1970     2.1380 hc         1 9Z9       0.055200
     88 H49         -9.4850     1.4950     1.9390 hc         1 9Z9       0.047700
     89 H50         -8.1030     2.4150     1.3760 hc         1 9Z9       0.047700
     90 H51        -10.0760     0.8760    -0.3590 hc         1 9Z9       0.053700
     91 H52         -8.7450     1.6110    -2.2790 h1         1 9Z9       0.047200
     92 H53         -7.6460     2.4940    -1.2200 h1         1 9Z9       0.047200
     93 H54         -9.4700     3.8740    -0.2220 hc         1 9Z9       0.034367
     94 H55        -10.6210     3.1030    -1.3110 hc         1 9Z9       0.034367
     95 H56        -10.9120     3.0950     0.4270 hc         1 9Z9       0.034367
@<TRIPOS>BOND
     1     1     2 1   
     2     1    40 1   
     3     1    41 1   
     4     1    42 1   
     5     2     3 1   
     6     2     6 1   
     7     2    10 1   
     8     3     4 1   
     9     3    32 1   
    10     3    43 1   
    11     4     5 1   
    12     4    30 1   
    13     4    44 1   
    14     5     6 1   
    15     5    45 1   
    16     5    46 1   
    17     6     7 1   
    18     6    47 1   
    19     7     8 1   
    20     7    15 1   
    21     7    48 1   
    22     8     9 1   
    23     8    11 1   
    24     8    49 1   
    25     9    10 1   
    26     9    50 1   
    27     9    51 1   
    28    10    52 1   
    29    10    53 1   
    30    11    12 1   
    31    11    13 1   
    32    11    19 1   
    33    12    54 1   
    34    12    55 1   
    35    12    56 1   
    36    13    14 2   
    37    13    16 1   
    38    14    15 1   
    39    14    57 1   
    40    15    58 1   
    41    15    59 1   
    42    16    17 1   
    43    16    60 1   
    44    16    61 1   
    45    17    18 1   
    46    17    20 1   
    47    17    62 1   
    48    18    19 1   
    49    18    63 1   
    50    18    64 1   
    51    19    65 1   
    52    19    66 1   
    53    20    21 1   
    54    21    22 1   
    55    21    67 1   
    56    21    68 1   
    57    22    23 1   
    58    22    69 1   
    59    22    70 1   
    60    23    24 1   
    61    23    27 1   
    62    23    71 1   
    63    24    25 1   
    64    24    72 1   
    65    24    73 1   
    66    25    26 1   
    67    26    74 1   
    68    26    75 1   
    69    26    76 1   
    70    27    28 1   
    71    27    77 1   
    72    27    78 1   
    73    28    29 1   
    74    29    79 1   
    75    29    80 1   
    76    29    81 1   
    77    30    31 1   
    78    31    32 1   
    79    31    34 1   
    80    31    38 1   
    81    32    33 1   
    82    32    82 1   
    83    33    83 1   
    84    33    84 1   
    85    33    85 1   
    86    34    35 1   
    87    34    86 1   
    88    34    87 1   
    89    35    36 1   
    90    35    88 1   
    91    35    89 1   
    92    36    37 1   
    93    36    39 1   
    94    36    90 1   
    95    37    38 1   
    96    37    91 1   
    97    37    92 1   
    98    39    93 1   
    99    39    94 1   
   100    39    95 1   
@<TRIPOS>SUBSTRUCTURE
     1 9Z9         1 TEMP              0 ****  ****    0 ROOT
