@<TRIPOS>MOLECULE
9ZB
   34    35     1     0     0
SMALL
abcg2


@<TRIPOS>ATOM
      1 C1          -3.0760    -1.3630     0.0020 c3         1 9ZB      -0.154400
      2 C2          -4.4420    -1.1800    -0.6350 c3         1 9ZB      -0.078100
      3 C3          -0.3950    -1.3590     1.0590 c6         1 9ZB       0.084000
      4 C4           0.7140    -1.8000     0.1280 c6         1 9ZB       0.196800
      5 O           -2.5580     0.8280    -0.7840 o          1 9ZB      -0.574100
      6 C           -2.1980    -0.1340    -0.1300 c          1 9ZB       0.602100
      7 N           -0.9980    -0.1510     0.5300 n          1 9ZB      -0.223400
      8 C7          -0.0590     0.8960     0.3690 ca         1 9ZB      -0.115000
      9 C12         -0.4340     2.2210     0.5490 ca         1 9ZB      -0.057000
     10 C11          0.4680     3.2570     0.3560 ca         1 9ZB      -0.146000
     11 C10          1.7690     2.9480    -0.0090 ca         1 9ZB      -0.080000
     12 C9           2.1710     1.6300    -0.1450 ca         1 9ZB      -0.175000
     13 C8           1.2830     0.5620     0.0690 ca         1 9ZB       0.305000
     14 N1           1.7030    -0.7510     0.0180 nh         1 9ZB      -0.822400
     15 C5           2.9740    -1.0600    -0.6210 c3         1 9ZB       0.225800
     16 C6           3.4110    -2.5070    -0.4820 c3         1 9ZB      -0.104100
     17 H1          -3.1900    -1.6200     1.0580 hc         1 9ZB       0.055200
     18 H2          -2.5680    -2.2170    -0.4570 hc         1 9ZB       0.055200
     19 H3          -5.0250    -2.0940    -0.5190 hc         1 9ZB       0.042700
     20 H4          -5.0010    -0.3700    -0.1680 hc         1 9ZB       0.042700
     21 H5          -4.3680    -0.9670    -1.7000 hc         1 9ZB       0.042700
     22 H6          -1.1240    -2.1550     1.1660 h1         1 9ZB       0.063200
     23 H7           0.0040    -1.1550     2.0550 h1         1 9ZB       0.063200
     24 H8           1.1740    -2.6960     0.5410 h1         1 9ZB       0.042700
     25 H9           0.2840    -2.0750    -0.8460 h1         1 9ZB       0.042700
     26 H10         -1.4500     2.4480     0.8380 ha         1 9ZB       0.127000
     27 H11          0.1540     4.2830     0.4870 ha         1 9ZB       0.116000
     28 H12          2.4900     3.7360    -0.1850 ha         1 9ZB       0.109000
     29 H13          3.1980     1.4400    -0.4200 ha         1 9ZB       0.110000
     30 H14          2.9460    -0.7900    -1.6850 h1         1 9ZB       0.039700
     31 H15          3.7530    -0.4450    -0.1660 h1         1 9ZB       0.039700
     32 H16          4.4030    -2.6090    -0.9200 hc         1 9ZB       0.041033
     33 H17          3.4800    -2.8100     0.5640 hc         1 9ZB       0.041033
     34 H18          2.7530    -3.2040    -1.0010 hc         1 9ZB       0.041033
@<TRIPOS>BOND
     1     1     2 1   
     2     1     6 1   
     3     1    17 1   
     4     1    18 1   
     5     2    19 1   
     6     2    20 1   
     7     2    21 1   
     8     3     4 1   
     9     3     7 1   
    10     3    22 1   
    11     3    23 1   
    12     4    14 1   
    13     4    24 1   
    14     4    25 1   
    15     5     6 2   
    16     6     7 1   
    17     7     8 1   
    18     8     9 ar  
    19     8    13 ar  
    20     9    10 ar  
    21     9    26 1   
    22    10    11 ar  
    23    10    27 1   
    24    11    12 ar  
    25    11    28 1   
    26    12    13 ar  
    27    12    29 1   
    28    13    14 1   
    29    14    15 1   
    30    15    16 1   
    31    15    30 1   
    32    15    31 1   
    33    16    32 1   
    34    16    33 1   
    35    16    34 1   
@<TRIPOS>SUBSTRUCTURE
     1 9ZB         1 TEMP              0 ****  ****    0 ROOT
