@<TRIPOS>MOLECULE
9ZB
   34    35     1     0     0
SMALL
No Charge or Current Charge


@<TRIPOS>ATOM
      1 C1          -3.2750    -1.3220     0.0460 c3         1 9ZB      -0.154400
      2 C2          -4.7200    -1.0340    -0.4240 c3         1 9ZB      -0.078100
      3 C3          -0.4190    -1.4770     0.9740 c6         1 9ZB       0.084000
      4 C4           0.8730    -1.8900     0.2350 c6         1 9ZB       0.196800
      5 O           -2.4820     0.5970    -1.1680 o          1 9ZB      -0.574100
      6 C           -2.2240    -0.2490    -0.3180 c          1 9ZB       0.602100
      7 N           -0.9820    -0.2410     0.3810 n          1 9ZB      -0.223400
      8 C7          -0.0440     0.8600     0.3530 ca         1 9ZB      -0.115000
      9 C12         -0.5120     2.1940     0.3180 ca         1 9ZB      -0.057000
     10 C11          0.3840     3.2640     0.1820 ca         1 9ZB      -0.146000
     11 C10          1.7540     3.0160     0.0370 ca         1 9ZB      -0.080000
     12 C9           2.2250     1.6950     0.0050 ca         1 9ZB      -0.175000
     13 C8           1.3390     0.5990     0.1300 ca         1 9ZB       0.305000
     14 N1           1.8250    -0.7470     0.0480 nh         1 9ZB      -0.822400
     15 C5           3.2180    -1.0410    -0.4000 c3         1 9ZB       0.225800
     16 C6           3.5590    -2.5110    -0.7290 c3         1 9ZB      -0.104100
     17 H1          -3.2370    -1.5000     1.1280 hc         1 9ZB       0.055200
     18 H2          -2.9260    -2.2790    -0.3600 hc         1 9ZB       0.055200
     19 H3          -5.3920    -1.8410    -0.1100 hc         1 9ZB       0.042700
     20 H4          -5.0870    -0.0950     0.0070 hc         1 9ZB       0.042700
     21 H5          -4.7670    -0.9570    -1.5170 hc         1 9ZB       0.042700
     22 H6          -1.1210    -2.3180     0.9550 h1         1 9ZB       0.063200
     23 H7          -0.1780    -1.2780     2.0270 h1         1 9ZB       0.063200
     24 H8           1.3420    -2.6990     0.8140 h1         1 9ZB       0.042700
     25 H9           0.5960    -2.3020    -0.7470 h1         1 9ZB       0.042700
     26 H10         -1.5720     2.4090     0.4320 ha         1 9ZB       0.127000
     27 H11          0.0130     4.2870     0.1860 ha         1 9ZB       0.116000
     28 H12          2.4500     3.8460    -0.0650 ha         1 9ZB       0.109000
     29 H13          3.2900     1.5380    -0.1270 ha         1 9ZB       0.110000
     30 H14          3.4260    -0.4570    -1.3070 h1         1 9ZB       0.039700
     31 H15          3.9200    -0.7020     0.3740 h1         1 9ZB       0.039700
     32 H16          4.5920    -2.5800    -1.0900 hc         1 9ZB       0.041033
     33 H17          3.4740    -3.1460     0.1600 hc         1 9ZB       0.041033
     34 H18          2.9010    -2.9020    -1.5140 hc         1 9ZB       0.041033
@<TRIPOS>BOND
     1     1     2 1   
     2     1     6 1   
     3     1    17 1   
     4     1    18 1   
     5     2    19 1   
     6     2    20 1   
     7     2    21 1   
     8     3     4 1   
     9     3     7 1   
    10     3    22 1   
    11     3    23 1   
    12     4    14 1   
    13     4    24 1   
    14     4    25 1   
    15     5     6 2   
    16     6     7 1   
    17     7     8 1   
    18     8     9 ar  
    19     8    13 ar  
    20     9    10 ar  
    21     9    26 1   
    22    10    11 ar  
    23    10    27 1   
    24    11    12 ar  
    25    11    28 1   
    26    12    13 ar  
    27    12    29 1   
    28    13    14 1   
    29    14    15 1   
    30    15    16 1   
    31    15    30 1   
    32    15    31 1   
    33    16    32 1   
    34    16    33 1   
    35    16    34 1   
@<TRIPOS>SUBSTRUCTURE
     1 9ZB         1 TEMP              0 ****  ****    0 ROOT
