@<TRIPOS>MOLECULE
9ZC
   51    53     1     0     0
SMALL
bcc


@<TRIPOS>ATOM
      1 C10          0.5640     1.6390    -0.0670 cc         1 9ZC       0.452800
      2 C15          2.6520     0.9330    -0.0350 cd         1 9ZC       0.072300
      3 C17          0.9630    -0.9550     0.0640 ca         1 9ZC      -0.045000
      4 C20          0.2000    -3.6570     0.1710 ca         1 9ZC       0.142100
      5 C21         -0.0170    -2.9100    -0.9860 ca         1 9ZC      -0.195000
      6 C22          0.3690    -1.5790    -1.0290 ca         1 9ZC      -0.084500
      7 C24         -0.7930    -5.6000    -0.7580 c3         1 9ZC       0.124700
      8 C26          5.0810     0.6740    -0.0420 c          1 9ZC       0.680100
      9 C01         -3.6780     2.0960    -0.1040 ca         1 9ZC       0.190100
     10 C02         -2.8590     3.1560    -0.4710 ca         1 9ZC      -0.288000
     11 C03         -1.4740     3.0330    -0.4500 ca         1 9ZC       0.225100
     12 C04         -0.8900     1.8090    -0.0720 ca         1 9ZC      -0.270500
     13 C05         -1.7500     0.7730     0.3000 ca         1 9ZC      -0.031000
     14 C06         -3.1300     0.8680     0.2900 ca         1 9ZC      -0.154300
     15 O08         -5.0200     2.2200    -0.1050 oh         1 9ZC      -0.494100
     16 C09         -4.0040    -0.2810     0.7460 c3         1 9ZC       0.001600
     17 C11         -3.4920    -1.6430     0.2810 c3         1 9ZC      -0.085100
     18 C12         -4.1720    -0.2560     2.2670 c3         1 9ZC      -0.085100
     19 N13          1.3430     2.7090    -0.1510 nd         1 9ZC      -0.591800
     20 N14          2.6000     2.2670    -0.1350 na         1 9ZC       0.008400
     21 C16          1.3500     0.4630     0.0070 cc         1 9ZC      -0.266300
     22 C18          1.1810    -1.7180     1.2130 ca         1 9ZC      -0.084500
     23 C19          0.8100    -3.0500     1.2700 ca         1 9ZC      -0.195000
     24 O23         -0.1410    -4.9500     0.3150 os         1 9ZC      -0.317900
     25 N25          3.8080     0.1860    -0.0060 ns         1 9ZC      -0.467100
     26 C27          6.1450    -0.3860    -0.0240 c3         1 9ZC      -0.179100
     27 O28          5.3120     1.8690    -0.0910 o          1 9ZC      -0.594100
     28 H1          -0.4840    -3.3440    -1.8590 ha         1 9ZC       0.142000
     29 H2           0.1900    -1.0110    -1.9340 ha         1 9ZC       0.138000
     30 H3          -1.7400    -5.1170    -1.0130 h1         1 9ZC       0.042033
     31 H4          -0.1670    -5.6410    -1.6530 h1         1 9ZC       0.042033
     32 H5          -0.9960    -6.6150    -0.4270 h1         1 9ZC       0.042033
     33 H6          -3.2940     4.1030    -0.7730 ha         1 9ZC       0.145000
     34 H7          -1.3100    -0.1590     0.6230 ha         1 9ZC       0.143000
     35 H8           0.1970     3.9170    -0.6580 ho         1 9ZC       0.473000
     36 H9          -5.2760     3.1000    -0.4050 ho         1 9ZC       0.427000
     37 H10         -4.9950    -0.1480     0.3070 hc         1 9ZC       0.060700
     38 H11         -2.5270    -1.8990     0.7220 hc         1 9ZC       0.032367
     39 H12         -4.1950    -2.4260     0.5700 hc         1 9ZC       0.032367
     40 H13         -3.3780    -1.6790    -0.8030 hc         1 9ZC       0.032367
     41 H14         -3.2150    -0.4220     2.7670 hc         1 9ZC       0.032367
     42 H15         -4.5640     0.7030     2.6090 hc         1 9ZC       0.032367
     43 H16         -4.8600    -1.0360     2.5970 hc         1 9ZC       0.032367
     44 H18          1.6320    -1.2590     2.0840 ha         1 9ZC       0.138000
     45 H19          0.9830    -3.6260     2.1710 ha         1 9ZC       0.142000
     46 H20          3.6780    -0.8150     0.0270 hn         1 9ZC       0.345500
     47 H21          7.1290     0.0710     0.0240 hc         1 9ZC       0.070700
     48 H22          6.0190    -1.0520     0.8310 hc         1 9ZC       0.070700
     49 H23          6.0850    -0.9970    -0.9260 hc         1 9ZC       0.070700
     50 H17          3.3800     2.9020    -0.1860 hn         1 9ZC       0.355700
     51 O07         -0.7570     4.1100    -0.8000 oh         1 9ZC      -0.512100
@<TRIPOS>BOND
     1     1    12 1   
     2     1    19 2   
     3     1    21 1   
     4     2    20 1   
     5     2    21 2   
     6     2    25 1   
     7     3     6 ar  
     8     3    21 1   
     9     3    22 ar  
    10     4     5 ar  
    11     4    23 ar  
    12     4    24 1   
    13     5     6 ar  
    14     5    28 1   
    15     6    29 1   
    16     7    24 1   
    17     7    30 1   
    18     7    31 1   
    19     7    32 1   
    20     8    25 1   
    21     8    26 1   
    22     8    27 2   
    23     9    10 ar  
    24     9    14 ar  
    25     9    15 1   
    26    10    11 ar  
    27    10    33 1   
    28    11    12 ar  
    29    11    51 1   
    30    12    13 ar  
    31    13    14 ar  
    32    13    34 1   
    33    14    16 1   
    34    15    36 1   
    35    16    17 1   
    36    16    18 1   
    37    16    37 1   
    38    17    38 1   
    39    17    39 1   
    40    17    40 1   
    41    18    41 1   
    42    18    42 1   
    43    18    43 1   
    44    19    20 1   
    45    20    50 1   
    46    22    23 ar  
    47    22    44 1   
    48    23    45 1   
    49    25    46 1   
    50    26    47 1   
    51    26    48 1   
    52    26    49 1   
    53    35    51 1   
@<TRIPOS>SUBSTRUCTURE
     1 9ZC         1 TEMP              0 ****  ****    0 ROOT
