@<TRIPOS>MOLECULE
9ZC
   51    53     1     0     0
SMALL
No Charge or Current Charge


@<TRIPOS>ATOM
      1 C10          0.5510     1.7350    -0.1400 cc         1 9ZC       0.387500
      2 C15          2.6210     0.9970     0.2350 cd         1 9ZC       0.021600
      3 C17          0.9910    -0.8530     0.0910 ca         1 9ZC      -0.045000
      4 C20          0.3220    -3.6040    -0.0740 ca         1 9ZC       0.142100
      5 C21         -0.2410    -2.6810    -0.9790 ca         1 9ZC      -0.177000
      6 C22          0.0930    -1.3180    -0.8930 ca         1 9ZC      -0.066500
      7 C24         -0.9050    -5.5110    -1.0470 c3         1 9ZC       0.147900
      8 C26          5.0680     0.6100     0.3690 c          1 9ZC       0.613100
      9 C01         -3.7510     1.9320    -0.3950 ca         1 9ZC       0.190100
     10 C02         -2.9680     2.9450    -0.9580 ca         1 9ZC      -0.270000
     11 C03         -1.5730     2.8920    -0.8740 ca         1 9ZC       0.225100
     12 C04         -0.9220     1.8070    -0.2490 ca         1 9ZC      -0.270500
     13 C05         -1.7300     0.8230     0.3650 ca         1 9ZC      -0.013000
     14 C06         -3.1370     0.8560     0.2830 ca         1 9ZC      -0.154300
     15 O08         -5.1070     2.0260    -0.4990 oh         1 9ZC      -0.533100
     16 C09         -3.9570    -0.2630     0.9510 c3         1 9ZC       0.001600
     17 C11         -3.5380    -1.6650     0.4490 c3         1 9ZC      -0.085100
     18 C12         -3.8760    -0.1660     2.4900 c3         1 9ZC      -0.085100
     19 N13          1.2880     2.8370    -0.2000 nd         1 9ZC      -0.591800
     20 N14          2.5810     2.3770     0.0470 na         1 9ZC       0.008800
     21 C16          1.3210     0.5790     0.1730 cc         1 9ZC      -0.201000
     22 C18          1.5520    -1.7850     0.9890 ca         1 9ZC      -0.066500
     23 C19          1.2180    -3.1480     0.9050 ca         1 9ZC      -0.177000
     24 O23          0.0250    -4.9510    -0.1020 os         1 9ZC      -0.341100
     25 N25          3.7510     0.2020     0.3320 ns         1 9ZC      -0.400100
     26 C27          6.0850    -0.5190     0.4640 c3         1 9ZC      -0.179100
     27 O28          5.4010     1.7880     0.3310 o          1 9ZC      -0.594100
     28 H1          -0.9350    -2.9980    -1.7510 ha         1 9ZC       0.124000
     29 H2          -0.3410    -0.6210    -1.6070 ha         1 9ZC       0.120000
     30 H3          -1.8990    -5.0620    -0.9280 h1         1 9ZC       0.042033
     31 H4          -0.5630    -5.3440    -2.0760 h1         1 9ZC       0.042033
     32 H5          -0.9990    -6.5930    -0.8910 h1         1 9ZC       0.042033
     33 H6          -3.4360     3.7850    -1.4640 ha         1 9ZC       0.127000
     34 H7          -1.2660     0.0280     0.9420 ha         1 9ZC       0.125000
     35 H8           0.0730     3.7440    -1.1220 ho         1 9ZC       0.512000
     36 H9          -5.3180     2.8430    -0.9960 ho         1 9ZC       0.466000
     37 H10         -5.0170    -0.1580     0.6900 hc         1 9ZC       0.060700
     38 H11         -2.5240    -1.9220     0.7760 hc         1 9ZC       0.032367
     39 H12         -4.2210    -2.4310     0.8360 hc         1 9ZC       0.032367
     40 H13         -3.5690    -1.7060    -0.6460 hc         1 9ZC       0.032367
     41 H14         -2.8490    -0.3160     2.8420 hc         1 9ZC       0.032367
     42 H15         -4.2150     0.8200     2.8300 hc         1 9ZC       0.032367
     43 H16         -4.5140    -0.9240     2.9590 hc         1 9ZC       0.032367
     44 H18          2.2160    -1.4520     1.7830 ha         1 9ZC       0.120000
     45 H19          1.6470    -3.8550     1.6110 ha         1 9ZC       0.124000
     46 H20          3.6320    -0.8030     0.3630 hn         1 9ZC       0.345500
     47 H21          7.1180    -0.1530     0.4930 hc         1 9ZC       0.070700
     48 H22          5.8510    -1.1380     1.3380 hc         1 9ZC       0.070700
     49 H23          5.9260    -1.2140    -0.3670 hc         1 9ZC       0.070700
     50 H17          3.3930     2.9950     0.0440 hn         1 9ZC       0.406000
     51 O07         -0.8580     3.9020    -1.4270 oh         1 9ZC      -0.551100
@<TRIPOS>BOND
     1     1    12 1   
     2     1    19 2   
     3     1    21 1   
     4     2    20 1   
     5     2    21 2   
     6     2    25 1   
     7     3     6 ar  
     8     3    21 1   
     9     3    22 ar  
    10     4     5 ar  
    11     4    23 ar  
    12     4    24 1   
    13     5     6 ar  
    14     5    28 1   
    15     6    29 1   
    16     7    24 1   
    17     7    30 1   
    18     7    31 1   
    19     7    32 1   
    20     8    25 1   
    21     8    26 1   
    22     8    27 2   
    23     9    10 ar  
    24     9    14 ar  
    25     9    15 1   
    26    10    11 ar  
    27    10    33 1   
    28    11    12 ar  
    29    11    51 1   
    30    12    13 ar  
    31    13    14 ar  
    32    13    34 1   
    33    14    16 1   
    34    15    36 1   
    35    16    17 1   
    36    16    18 1   
    37    16    37 1   
    38    17    38 1   
    39    17    39 1   
    40    17    40 1   
    41    18    41 1   
    42    18    42 1   
    43    18    43 1   
    44    19    20 1   
    45    20    50 1   
    46    22    23 ar  
    47    22    44 1   
    48    23    45 1   
    49    25    46 1   
    50    26    47 1   
    51    26    48 1   
    52    26    49 1   
    53    35    51 1   
@<TRIPOS>SUBSTRUCTURE
     1 9ZC         1 TEMP              0 ****  ****    0 ROOT
