@<TRIPOS>MOLECULE
9ZE
   23    24     1     0     0
SMALL
bcc


@<TRIPOS>ATOM
      1 C1           1.1120     1.4730    -0.0040 ca         1 9ZE      -0.068000
      2 C2          -0.2290     1.7980     0.0080 ca         1 9ZE      -0.146000
      3 C3           1.5170     0.1370    -0.0260 ca         1 9ZE      -0.183600
      4 C4          -1.1980     0.7980     0.0040 ca         1 9ZE       0.089100
      5 C5           0.5460    -0.8630    -0.0160 ca         1 9ZE      -0.086000
      6 C6          -0.8020    -0.5450    -0.0000 ca         1 9ZE       0.034100
      7 O7          -2.4940     1.1580     0.0020 os         1 9ZE      -0.302900
      8 C8          -3.4050     0.1100    -0.3100 c6         1 9ZE       0.094400
      9 O9          -1.7050    -1.5530     0.0150 os         1 9ZE      -0.306900
     10 C10         -3.0100    -1.1560     0.4090 c6         1 9ZE       0.094400
     11 C11          2.9660    -0.1860    -0.0460 c          1 9ZE       0.587700
     12 C12          3.3740    -1.6340    -0.0640 c3         1 9ZE      -0.196100
     13 O13          3.7980     0.7000    -0.0460 o          1 9ZE      -0.528100
     14 H1           1.8490     2.2640    -0.0060 ha         1 9ZE       0.157000
     15 H2          -0.5450     2.8340     0.0150 ha         1 9ZE       0.151000
     16 H3           0.8170    -1.9110    -0.0200 ha         1 9ZE       0.146000
     17 H4          -4.3930     0.4390     0.0080 h1         1 9ZE       0.070200
     18 H5          -3.4240    -0.0530    -1.3920 h1         1 9ZE       0.070200
     19 H6          -3.0480    -1.0090     1.4940 h1         1 9ZE       0.069200
     20 H7          -3.6870    -1.9680     0.1470 h1         1 9ZE       0.069200
     21 H8           2.9710    -2.1430    -0.9410 hc         1 9ZE       0.061367
     22 H9           4.4580    -1.7200    -0.0780 hc         1 9ZE       0.061367
     23 H10          2.9930    -2.1580     0.8140 hc         1 9ZE       0.061367
@<TRIPOS>BOND
     1     1     2 ar  
     2     1     3 ar  
     3     1    14 1   
     4     2     4 ar  
     5     2    15 1   
     6     3     5 ar  
     7     3    11 1   
     8     4     6 ar  
     9     4     7 1   
    10     5     6 ar  
    11     5    16 1   
    12     6     9 1   
    13     7     8 1   
    14     8    10 1   
    15     8    17 1   
    16     8    18 1   
    17     9    10 1   
    18    10    19 1   
    19    10    20 1   
    20    11    12 1   
    21    11    13 2   
    22    12    21 1   
    23    12    22 1   
    24    12    23 1   
@<TRIPOS>SUBSTRUCTURE
     1 9ZE         1 TEMP              0 ****  ****    0 ROOT
