@<TRIPOS>MOLECULE
9ZE
   23    24     1     0     0
SMALL
No Charge or Current Charge


@<TRIPOS>ATOM
      1 C1           1.1380     1.4940    -0.0100 ca         1 9ZE      -0.050000
      2 C2          -0.2280     1.8290     0.0090 ca         1 9ZE      -0.128000
      3 C3           1.5530     0.1410    -0.0250 ca         1 9ZE      -0.183600
      4 C4          -1.1990     0.8190     0.0120 ca         1 9ZE       0.089100
      5 C5           0.5630    -0.8740    -0.0100 ca         1 9ZE      -0.068000
      6 C6          -0.8010    -0.5400     0.0200 ca         1 9ZE       0.034100
      7 O7          -2.5360     1.1630     0.0090 os         1 9ZE      -0.326100
      8 C8          -3.4890     0.1250    -0.3090 c6         1 9ZE       0.117600
      9 O9          -1.7430    -1.5500     0.0560 os         1 9ZE      -0.330100
     10 C10         -3.0970    -1.1850     0.4070 c6         1 9ZE       0.117600
     11 C11          3.0340    -0.1890    -0.0520 c          1 9ZE       0.587700
     12 C12          3.4870    -1.6510    -0.0680 c3         1 9ZE      -0.196100
     13 O13          3.8760     0.7020    -0.0610 o          1 9ZE      -0.528100
     14 H1           1.8740     2.2970    -0.0180 ha         1 9ZE       0.139000
     15 H2          -0.5330     2.8720     0.0110 ha         1 9ZE       0.133000
     16 H3           0.8330    -1.9270    -0.0120 ha         1 9ZE       0.128000
     17 H4          -4.4950     0.4480    -0.0050 h1         1 9ZE       0.070200
     18 H5          -3.4920    -0.0370    -1.3960 h1         1 9ZE       0.070200
     19 H6          -3.1580    -1.0410     1.4950 h1         1 9ZE       0.069200
     20 H7          -3.7780    -2.0010     0.1270 h1         1 9ZE       0.069200
     21 H8           3.0190    -2.1610    -0.9180 hc         1 9ZE       0.061367
     22 H9           4.5770    -1.7540    -0.0900 hc         1 9ZE       0.061367
     23 H10          3.0540    -2.1690     0.7940 hc         1 9ZE       0.061367
@<TRIPOS>BOND
     1     1     2 ar  
     2     1     3 ar  
     3     1    14 1   
     4     2     4 ar  
     5     2    15 1   
     6     3     5 ar  
     7     3    11 1   
     8     4     6 ar  
     9     4     7 1   
    10     5     6 ar  
    11     5    16 1   
    12     6     9 1   
    13     7     8 1   
    14     8    10 1   
    15     8    17 1   
    16     8    18 1   
    17     9    10 1   
    18    10    19 1   
    19    10    20 1   
    20    11    12 1   
    21    11    13 2   
    22    12    21 1   
    23    12    22 1   
    24    12    23 1   
@<TRIPOS>SUBSTRUCTURE
     1 9ZE         1 TEMP              0 ****  ****    0 ROOT
