@<TRIPOS>MOLECULE
9ZF
   42    45     1     0     0
SMALL
bcc


@<TRIPOS>ATOM
      1 C10          2.5220     0.6490    -0.3730 c6         1 9ZF       0.135700
      2 C16         -3.2350    -0.9030    -0.1070 ca         1 9ZF       0.056900
      3 C17         -4.5720    -0.6670     0.1460 ca         1 9ZF       0.081900
      4 C15         -2.3460     0.1290    -0.3950 ca         1 9ZF       0.067600
      5 C12          0.0700     0.5670    -0.3180 c          1 9ZF       0.795100
      6 C18         -5.0470     0.6300     0.1370 ca         1 9ZF       0.096900
      7 C20         -2.8570     1.4270    -0.4170 ca         1 9ZF      -0.108000
      8 C19         -4.1930     1.6760    -0.1410 ca         1 9ZF      -0.137000
      9 C01          5.6360    -0.6930     0.6560 c6         1 9ZF      -0.068400
     10 C02          4.3670    -1.5180     0.4250 c6         1 9ZF      -0.061700
     11 C03          3.9180    -1.3560    -1.0300 c6         1 9ZF      -0.068150
     12 C04          3.6120     0.1190    -1.3140 c6         1 9ZF      -0.075200
     13 C05          4.8830     0.9420    -1.0820 c6         1 9ZF      -0.068150
     14 C06          5.3510     0.7820     0.3670 c6         1 9ZF      -0.061700
     15 C07          4.2490     1.2780     1.3050 c6         1 9ZF      -0.068150
     16 C08          2.9750     0.4570     1.0830 c6         1 9ZF      -0.075200
     17 C09          3.2610    -1.0200     1.3580 c6         1 9ZF      -0.068150
     18 N11          1.2510     0.0140    -0.6630 ns         1 9ZF      -0.584900
     19 O13         -0.0350     1.6460     0.2450 o          1 9ZF      -0.624100
     20 N14         -1.0240    -0.1960    -0.6770 ns         1 9ZF      -0.496100
     21 F21         -6.3410     0.8440     0.3910 f          1 9ZF      -0.121900
     22 F23         -2.7960    -2.1660    -0.0780 f          1 9ZF      -0.130900
     23 H1           2.4010     1.7200    -0.5620 h1         1 9ZF       0.073700
     24 H2          -2.2130     2.2580    -0.6550 ha         1 9ZF       0.171000
     25 H3          -4.5720     2.6890    -0.1570 ha         1 9ZF       0.160000
     26 H4           5.9780    -0.8130     1.6900 hc         1 9ZF       0.041200
     27 H5           6.4450    -1.0570     0.0130 hc         1 9ZF       0.041200
     28 H6           4.5720    -2.5730     0.6290 hc         1 9ZF       0.051700
     29 H7           4.7080    -1.6930    -1.7080 hc         1 9ZF       0.042325
     30 H8           3.0570    -2.0000    -1.2380 hc         1 9ZF       0.042325
     31 H9           3.2800     0.2410    -2.3490 hc         1 9ZF       0.062700
     32 H10          5.6650     0.6150    -1.7740 hc         1 9ZF       0.042325
     33 H11          4.6910     1.9980    -1.2970 hc         1 9ZF       0.042325
     34 H12          6.2590     1.3730     0.5230 hc         1 9ZF       0.051700
     35 H13          4.5690     1.1920     2.3480 hc         1 9ZF       0.042325
     36 H14          4.0490     2.3400     1.1240 hc         1 9ZF       0.042325
     37 H15          2.1880     0.8160     1.7500 hc         1 9ZF       0.062700
     38 H16          2.3530    -1.6190     1.2280 hc         1 9ZF       0.042325
     39 H17          3.5650    -1.1480     2.4010 hc         1 9ZF       0.042325
     40 H18          1.2600    -0.8890    -1.1080 hn         1 9ZF       0.312500
     41 H19         -0.8520    -1.1280    -1.0220 hn         1 9ZF       0.324500
     42 F22         -5.3850    -1.6880     0.4090 f          1 9ZF      -0.108900
@<TRIPOS>BOND
     1     1    12 1   
     2     1    16 1   
     3     1    18 1   
     4     1    23 1   
     5     2     3 ar  
     6     2     4 ar  
     7     2    22 1   
     8     3     6 ar  
     9     3    42 1   
    10     4     7 ar  
    11     4    20 1   
    12     5    18 1   
    13     5    19 2   
    14     5    20 1   
    15     6     8 ar  
    16     6    21 1   
    17     7     8 ar  
    18     7    24 1   
    19     8    25 1   
    20     9    10 1   
    21     9    14 1   
    22     9    26 1   
    23     9    27 1   
    24    10    11 1   
    25    10    17 1   
    26    10    28 1   
    27    11    12 1   
    28    11    29 1   
    29    11    30 1   
    30    12    13 1   
    31    12    31 1   
    32    13    14 1   
    33    13    32 1   
    34    13    33 1   
    35    14    15 1   
    36    14    34 1   
    37    15    16 1   
    38    15    35 1   
    39    15    36 1   
    40    16    17 1   
    41    16    37 1   
    42    17    38 1   
    43    17    39 1   
    44    18    40 1   
    45    20    41 1   
@<TRIPOS>SUBSTRUCTURE
     1 9ZF         1 TEMP              0 ****  ****    0 ROOT
