@<TRIPOS>MOLECULE
9ZF
   42    45     1     0     0
SMALL
No Charge or Current Charge


@<TRIPOS>ATOM
      1 C10          2.5850     0.7270    -0.4370 c6         1 9ZF       0.135700
      2 C16         -3.3080    -0.9110    -0.5960 ca         1 9ZF       0.092000
      3 C17         -4.7000    -0.7680    -0.4430 ca         1 9ZF       0.117000
      4 C15         -2.4340     0.1560    -0.2890 ca         1 9ZF      -0.025000
      5 C12          0.0640     0.7650    -0.2700 c          1 9ZF       0.661100
      6 C18         -5.2310     0.4480     0.0190 ca         1 9ZF       0.132000
      7 C20         -2.9830     1.3750     0.1760 ca         1 9ZF      -0.090000
      8 C19         -4.3750     1.5160     0.3280 ca         1 9ZF      -0.119000
      9 C01          5.6830    -0.7530     0.6910 c6         1 9ZF      -0.068400
     10 C02          4.3220    -1.5040     0.6090 c6         1 9ZF      -0.061700
     11 C03          3.8160    -1.4900    -0.8630 c6         1 9ZF      -0.068150
     12 C04          3.6230    -0.0160    -1.3380 c6         1 9ZF      -0.075200
     13 C05          4.9900     0.7260    -1.2540 c6         1 9ZF      -0.068150
     14 C06          5.5020     0.7180     0.2160 c6         1 9ZF      -0.061700
     15 C07          4.4600     1.4290     1.1280 c6         1 9ZF      -0.068150
     16 C08          3.0940     0.6870     1.0400 c6         1 9ZF      -0.075200
     17 C09          3.2820    -0.7860     1.5180 c6         1 9ZF      -0.068150
     18 N11          1.2460     0.1340    -0.5680 ns         1 9ZF      -0.517900
     19 O13          0.0220     1.9230     0.1190 o          1 9ZF      -0.624100
     20 N14         -1.0350    -0.0550    -0.4650 ns         1 9ZF      -0.170000
     21 F21         -6.5670     0.5980     0.1700 f          1 9ZF      -0.157000
     22 F23         -2.8030    -2.0860    -1.0420 f          1 9ZF      -0.166000
     23 H1           2.5210     1.7760    -0.7660 h1         1 9ZF       0.073700
     24 H2          -2.3520     2.2220     0.4260 ha         1 9ZF       0.153000
     25 H3          -4.7920     2.4550     0.6860 ha         1 9ZF       0.142000
     26 H4           6.0660    -0.7740     1.7210 hc         1 9ZF       0.041200
     27 H5           6.4350    -1.2620     0.0720 hc         1 9ZF       0.041200
     28 H6           4.4520    -2.5420     0.9450 hc         1 9ZF       0.051700
     29 H7           4.5390    -2.0030    -1.5130 hc         1 9ZF       0.042325
     30 H8           2.8780    -2.0550    -0.9480 hc         1 9ZF       0.042325
     31 H9           3.2730    -0.0080    -2.3800 hc         1 9ZF       0.062700
     32 H10          5.7250     0.2440    -1.9140 hc         1 9ZF       0.042325
     33 H11          4.8850     1.7590    -1.6130 hc         1 9ZF       0.042325
     34 H12          6.4650     1.2460     0.2750 hc         1 9ZF       0.051700
     35 H13          4.8160     1.4470     2.1670 hc         1 9ZF       0.042325
     36 H14          4.3420     2.4780     0.8230 hc         1 9ZF       0.042325
     37 H15          2.3680     1.1930     1.6920 hc         1 9ZF       0.062700
     38 H16          2.3240    -1.3250     1.4990 hc         1 9ZF       0.042325
     39 H17          3.6210    -0.8030     2.5630 hc         1 9ZF       0.042325
     40 H18          1.1830    -0.8240    -0.8860 hn         1 9ZF       0.312500
     41 H19         -0.8070    -0.9830    -0.7940 hn         1 9ZF       0.158000
     42 F22         -5.5260    -1.8000    -0.7420 f          1 9ZF      -0.144000
@<TRIPOS>BOND
     1     1    12 1   
     2     1    16 1   
     3     1    18 1   
     4     1    23 1   
     5     2     3 ar  
     6     2     4 ar  
     7     2    22 1   
     8     3     6 ar  
     9     3    42 1   
    10     4     7 ar  
    11     4    20 1   
    12     5    18 1   
    13     5    19 2   
    14     5    20 1   
    15     6     8 ar  
    16     6    21 1   
    17     7     8 ar  
    18     7    24 1   
    19     8    25 1   
    20     9    10 1   
    21     9    14 1   
    22     9    26 1   
    23     9    27 1   
    24    10    11 1   
    25    10    17 1   
    26    10    28 1   
    27    11    12 1   
    28    11    29 1   
    29    11    30 1   
    30    12    13 1   
    31    12    31 1   
    32    13    14 1   
    33    13    32 1   
    34    13    33 1   
    35    14    15 1   
    36    14    34 1   
    37    15    16 1   
    38    15    35 1   
    39    15    36 1   
    40    16    17 1   
    41    16    37 1   
    42    17    38 1   
    43    17    39 1   
    44    18    40 1   
    45    20    41 1   
@<TRIPOS>SUBSTRUCTURE
     1 9ZF         1 TEMP              0 ****  ****    0 ROOT
