@<TRIPOS>MOLECULE
9ZG
   53    54     1     0     0
SMALL
No Charge or Current Charge


@<TRIPOS>ATOM
      1 C4          30.6280    -4.3720     7.8420 c          1 9ZG       0.570100
      2 C14         34.7510    -0.7580    10.2080 c3         1 9ZG       0.231900
      3 C5          31.9250    -3.6130     7.4090 c3         1 9ZG       0.054700
      4 C6          32.8230    -4.4990     6.5040 c3         1 9ZG      -0.042100
      5 C11         35.0730    -2.2200     4.3910 ca         1 9ZG      -0.105000
      6 C7          34.0540    -3.7700     5.9780 ca         1 9ZG      -0.083300
      7 C8          35.3090    -3.9510     6.5920 ca         1 9ZG      -0.103000
      8 C9          36.4390    -3.2680     6.1090 ca         1 9ZG      -0.105000
      9 C10         36.3220    -2.4030     5.0090 ca         1 9ZG      -0.106000
     10 C12         33.9420    -2.9010     4.8740 ca         1 9ZG      -0.103000
     11 N1          28.4090    -5.3600     7.1760 n3         1 9ZG      -0.546600
     12 N2          29.0190    -7.2670     8.3160 n8         1 9ZG      -1.037200
     13 C3          29.5300    -3.7650     5.6320 c3         1 9ZG       0.119300
     14 N3          29.5700    -4.5490     6.8890 n          1 9ZG      -0.262200
     15 C1          27.3180    -4.8330     8.0300 c3         1 9ZG       0.187100
     16 C2          28.4600    -6.8170     7.0610 c3         1 9ZG       0.427000
     17 O1          30.5420    -4.8610     8.9670 o          1 9ZG      -0.595100
     18 N4          32.6730    -3.1560     8.6010 ns         1 9ZG      -0.471900
     19 O2          33.3780    -1.1010     7.8490 o          1 9ZG      -0.544000
     20 O3          33.9700    -1.9260     9.9110 os         1 9ZG      -0.452100
     21 C15         35.3620    -0.9280    11.5920 ca         1 9ZG      -0.101300
     22 C16         36.6000    -1.5830    11.7460 ca         1 9ZG      -0.084000
     23 C17         37.1650    -1.7390    13.0240 ca         1 9ZG      -0.116500
     24 C18         36.4960    -1.2420    14.1560 ca         1 9ZG      -0.099000
     25 C19         35.2600    -0.5900    14.0080 ca         1 9ZG      -0.116500
     26 C20         34.6940    -0.4340    12.7310 ca         1 9ZG      -0.084000
     27 H1          35.5520    -0.6290     9.4680 h1         1 9ZG       0.056700
     28 H2          34.1250     0.1440    10.1880 h1         1 9ZG       0.056700
     29 H3          31.6170    -2.7260     6.8430 h1         1 9ZG       0.087700
     30 H4          32.2410    -4.8830     5.6600 hc         1 9ZG       0.060700
     31 H5          33.1270    -5.3870     7.0740 hc         1 9ZG       0.060700
     32 H6          34.9810    -1.5490     3.5400 ha         1 9ZG       0.114500
     33 H7          35.4090    -4.6150     7.4470 ha         1 9ZG       0.108500
     34 H8          37.4050    -3.4090     6.5890 ha         1 9ZG       0.114500
     35 H9          37.1970    -1.8740     4.6350 ha         1 9ZG       0.114000
     36 H10         32.9790    -2.7510     4.3930 ha         1 9ZG       0.108500
     37 H11         29.7410    -6.5670     8.5310 hn         1 9ZG       0.408500
     38 H12         28.3120    -7.0990     9.0330 hn         1 9ZG       0.408500
     39 H14         28.5670    -3.9160     5.1290 h1         1 9ZG       0.040700
     40 H15         29.6400    -2.6950     5.8520 h1         1 9ZG       0.040700
     41 H16         30.3280    -4.0850     4.9530 h1         1 9ZG       0.040700
     42 H17         27.0750    -3.8010     7.7440 h1         1 9ZG       0.044033
     43 H18         26.4060    -5.4360     7.9270 h1         1 9ZG       0.044033
     44 H19         27.6160    -4.8310     9.0870 h1         1 9ZG       0.044033
     45 H20         29.1180    -7.0970     6.2280 h2         1 9ZG       0.036700
     46 H21         27.4610    -7.2430     6.8990 h2         1 9ZG       0.036700
     47 H22         32.7080    -3.7590     9.4140 hn         1 9ZG       0.331500
     48 H23         37.1230    -1.9730    10.8760 ha         1 9ZG       0.116000
     49 H24         38.1210    -2.2460    13.1370 ha         1 9ZG       0.113500
     50 H25         36.9330    -1.3640    15.1440 ha         1 9ZG       0.112000
     51 H26         34.7400    -0.2070    14.8830 ha         1 9ZG       0.113500
     52 H27         33.7350     0.0700    12.6260 ha         1 9ZG       0.116000
     53 C13         33.3560    -1.9770     8.6990 c          1 9ZG       0.641100
@<TRIPOS>BOND
     1     1     3 1   
     2     1    14 1   
     3     1    17 2   
     4     2    20 1   
     5     2    21 1   
     6     2    27 1   
     7     2    28 1   
     8     3     4 1   
     9     3    18 1   
    10     3    29 1   
    11     4     6 1   
    12     4    30 1   
    13     4    31 1   
    14     5     9 ar  
    15     5    10 ar  
    16     5    32 1   
    17     6     7 ar  
    18     6    10 ar  
    19     7     8 ar  
    20     7    33 1   
    21     8     9 ar  
    22     8    34 1   
    23     9    35 1   
    24    10    36 1   
    25    11    14 1   
    26    11    15 1   
    27    11    16 1   
    28    12    16 1   
    29    12    37 1   
    30    12    38 1   
    31    13    14 1   
    32    13    39 1   
    33    13    40 1   
    34    13    41 1   
    35    15    42 1   
    36    15    43 1   
    37    15    44 1   
    38    16    45 1   
    39    16    46 1   
    40    18    47 1   
    41    18    53 1   
    42    19    53 2   
    43    20    53 1   
    44    21    22 ar  
    45    21    26 ar  
    46    22    23 ar  
    47    22    48 1   
    48    23    24 ar  
    49    23    49 1   
    50    24    25 ar  
    51    24    50 1   
    52    25    26 ar  
    53    25    51 1   
    54    26    52 1   
@<TRIPOS>SUBSTRUCTURE
     1 9ZG         1 TEMP              0 ****  ****    0 ROOT
