@<TRIPOS>MOLECULE
9ZG
   53    54     1     0     0
SMALL
bcc


@<TRIPOS>ATOM
      1 C4          30.9900    -4.1250     7.7220 c          1 9ZG       0.637100
      2 C14         33.3990    -0.9320    10.9630 c3         1 9ZG       0.208700
      3 C5          32.3030    -3.5670     7.1460 c3         1 9ZG       0.054700
      4 C6          32.9960    -4.6660     6.3270 c3         1 9ZG      -0.042100
      5 C11         35.3780    -2.8750     3.9800 ca         1 9ZG      -0.123000
      6 C7          34.2660    -4.1880     5.6780 ca         1 9ZG      -0.083300
      7 C8          35.5110    -4.5790     6.1610 ca         1 9ZG      -0.121000
      8 C9          36.6800    -4.1250     5.5620 ca         1 9ZG      -0.123000
      9 C10         36.6170    -3.2720     4.4700 ca         1 9ZG      -0.124000
     10 C12         34.2140    -3.3320     4.5800 ca         1 9ZG      -0.121000
     11 N1          28.6860    -4.6290     7.3620 n3         1 9ZG      -0.546600
     12 N2          28.7630    -6.6520     8.7310 n8         1 9ZG      -0.926800
     13 C3          29.8220    -3.6080     5.5710 c3         1 9ZG       0.119300
     14 N3          29.9020    -4.1360     6.9190 n          1 9ZG      -0.329200
     15 C1          28.0190    -3.8430     8.3740 c3         1 9ZG       0.187100
     16 C2          28.5460    -6.0660     7.4230 c3         1 9ZG       0.427000
     17 O1          30.9790    -4.5770     8.8540 o          1 9ZG      -0.595100
     18 N4          33.1750    -3.1440     8.2070 ns         1 9ZG      -0.538900
     19 O2          31.8460    -1.4150     8.8250 o          1 9ZG      -0.593000
     20 O3          33.6490    -2.0040    10.0450 os         1 9ZG      -0.428900
     21 C15         34.4870    -0.9810    11.9920 ca         1 9ZG      -0.101300
     22 C16         35.6860    -0.3070    11.7810 ca         1 9ZG      -0.102000
     23 C17         36.7070    -0.3740    12.7190 ca         1 9ZG      -0.134500
     24 C18         36.5360    -1.1180    13.8800 ca         1 9ZG      -0.117000
     25 C19         35.3420    -1.7940    14.0980 ca         1 9ZG      -0.134500
     26 C20         34.3240    -1.7250    13.1570 ca         1 9ZG      -0.102000
     27 H1          33.4080     0.0240    10.4350 h1         1 9ZG       0.056700
     28 H2          32.4190    -1.0570    11.4260 h1         1 9ZG       0.056700
     29 H3          32.1120    -2.7070     6.5020 h1         1 9ZG       0.087700
     30 H4          32.3060    -5.0280     5.5630 hc         1 9ZG       0.060700
     31 H5          33.2030    -5.5160     6.9820 hc         1 9ZG       0.060700
     32 H6          35.3190    -2.2130     3.1260 ha         1 9ZG       0.132500
     33 H7          35.5690    -5.2490     7.0110 ha         1 9ZG       0.126500
     34 H8          37.6400    -4.4410     5.9500 ha         1 9ZG       0.132500
     35 H9          37.5260    -2.9190     4.0010 ha         1 9ZG       0.132000
     36 H10         33.2510    -3.0240     4.1860 ha         1 9ZG       0.126500
     37 H11         28.4150    -7.6020     8.7300 hn         1 9ZG       0.353300
     38 H12         29.7490    -6.6930     8.9470 hn         1 9ZG       0.353300
     39 H14         29.4900    -4.3900     4.8880 h1         1 9ZG       0.040700
     40 H15         29.1050    -2.7860     5.5310 h1         1 9ZG       0.040700
     41 H16         30.7750    -3.2380     5.2090 h1         1 9ZG       0.040700
     42 H17         28.0170    -2.7940     8.0740 h1         1 9ZG       0.044033
     43 H18         26.9800    -4.1690     8.4330 h1         1 9ZG       0.044033
     44 H19         28.4520    -3.9200     9.3740 h1         1 9ZG       0.044033
     45 H20         29.1900    -6.4690     6.6320 h2         1 9ZG       0.036700
     46 H21         27.5160    -6.3060     7.1430 h2         1 9ZG       0.036700
     47 H22         33.8720    -3.7920     8.5420 hn         1 9ZG       0.331500
     48 H23         35.8220     0.2780    10.8790 ha         1 9ZG       0.134000
     49 H24         37.6340     0.1570    12.5460 ha         1 9ZG       0.131500
     50 H25         37.3300    -1.1690    14.6140 ha         1 9ZG       0.130000
     51 H26         35.2030    -2.3720    15.0020 ha         1 9ZG       0.131500
     52 H27         33.3920    -2.2490    13.3330 ha         1 9ZG       0.134000
     53 C13         32.8050    -2.1310     9.0190 c          1 9ZG       0.757100
@<TRIPOS>BOND
     1     1     3 1   
     2     1    14 1   
     3     1    17 2   
     4     2    20 1   
     5     2    21 1   
     6     2    27 1   
     7     2    28 1   
     8     3     4 1   
     9     3    18 1   
    10     3    29 1   
    11     4     6 1   
    12     4    30 1   
    13     4    31 1   
    14     5     9 ar  
    15     5    10 ar  
    16     5    32 1   
    17     6     7 ar  
    18     6    10 ar  
    19     7     8 ar  
    20     7    33 1   
    21     8     9 ar  
    22     8    34 1   
    23     9    35 1   
    24    10    36 1   
    25    11    14 1   
    26    11    15 1   
    27    11    16 1   
    28    12    16 1   
    29    12    37 1   
    30    12    38 1   
    31    13    14 1   
    32    13    39 1   
    33    13    40 1   
    34    13    41 1   
    35    15    42 1   
    36    15    43 1   
    37    15    44 1   
    38    16    45 1   
    39    16    46 1   
    40    18    47 1   
    41    18    53 1   
    42    19    53 2   
    43    20    53 1   
    44    21    22 ar  
    45    21    26 ar  
    46    22    23 ar  
    47    22    48 1   
    48    23    24 ar  
    49    23    49 1   
    50    24    25 ar  
    51    24    50 1   
    52    25    26 ar  
    53    25    51 1   
    54    26    52 1   
@<TRIPOS>SUBSTRUCTURE
     1 9ZG         1 TEMP              0 ****  ****    0 ROOT
