@<TRIPOS>MOLECULE
9ZH
   59    62     1     0     0
SMALL
No Charge or Current Charge


@<TRIPOS>ATOM
      1 C10          3.3410    -2.1730    82.9010 ca         1 9ZH      -0.176600
      2 C13          1.0700    -1.2140    84.2910 ca         1 9ZH       0.138600
      3 C15          2.0950    -2.8430    82.7580 ca         1 9ZH       0.084700
      4 C20         -4.7870    -5.4030    83.6250 ca         1 9ZH      -0.082300
      5 C21         -5.6150    -4.9080    82.5980 ca         1 9ZH      -0.104500
      6 C22         -5.7820    -5.6370    81.4070 ca         1 9ZH      -0.108000
      7 C24         -4.2970    -7.3660    82.2570 ca         1 9ZH      -0.108000
      8 C26         -3.1820    -3.9980    85.0360 c3         1 9ZH      -0.090400
      9 C1           6.0790    -6.1490    81.2960 c6         1 9ZH      -0.075200
     10 C2           6.0260    -6.8180    82.6870 c6         1 9ZH      -0.064400
     11 C3           4.7430    -6.3930    83.4290 c6         1 9ZH      -0.182400
     12 C4           4.6610    -4.8690    83.5540 c          1 9ZH       0.610300
     13 C5           5.0260    -4.0830    82.3470 ce         1 9ZH      -0.495400
     14 C6           5.6940    -4.6770    81.3340 c2         1 9ZH       0.287900
     15 C9           4.6260    -2.6520    82.2760 c          1 9ZH       0.640900
     16 C11          3.4090    -0.9840    83.6390 ca         1 9ZH      -0.006000
     17 C12          2.2820    -0.4950    84.2980 ca         1 9ZH      -0.186000
     18 C14          0.9550    -2.3720    83.4910 ca         1 9ZH      -0.214600
     19 C16         -0.3930    -3.0640    83.4490 c          1 9ZH       0.593600
     20 C19         -1.3770    -1.2160    84.7610 c          1 9ZH       0.622000
     21 C23         -5.1230    -6.8660    81.2360 ca         1 9ZH      -0.112000
     22 C25         -4.1300    -6.6370    83.4470 ca         1 9ZH      -0.104500
     23 C27         -4.5950    -4.6100    84.9120 c3         1 9ZH      -0.027100
     24 C32          1.9800    -3.9910    81.7430 c3         1 9ZH      -0.057800
     25 N17         -0.0930    -0.6730    84.9400 n          1 9ZH      -0.302000
     26 N18         -1.4820    -2.4090    84.0420 n          1 9ZH      -0.372400
     27 O7           6.0710    -4.0190    80.2340 oh         1 9ZH      -0.539100
     28 O29         -0.5440    -4.1750    82.9610 o          1 9ZH      -0.525000
     29 O30         -2.3670    -0.6800    85.2450 o          1 9ZH      -0.560000
     30 O33          5.2770    -1.8900    81.5700 o          1 9ZH      -0.600100
     31 H1          -6.1280    -3.9560    82.7190 ha         1 9ZH       0.110000
     32 H2          -6.4220    -5.2490    80.6180 ha         1 9ZH       0.110000
     33 H3          -3.7860    -8.3170    82.1260 ha         1 9ZH       0.110000
     34 H4          -2.4380    -4.8030    85.0620 hc         1 9ZH       0.053200
     35 H5          -3.1090    -3.4690    85.9940 hc         1 9ZH       0.053200
     36 H6          -3.5990    -2.2320    83.8470 h1         1 9ZH       0.074200
     37 H7          -2.8980    -3.5480    82.9310 h1         1 9ZH       0.074200
     38 H8           5.3930    -6.6700    80.6130 hc         1 9ZH       0.079700
     39 H9           7.0850    -6.2660    80.8690 hc         1 9ZH       0.079700
     40 H10          6.0690    -7.9120    82.5850 hc         1 9ZH       0.056700
     41 H11          6.9060    -6.5210    83.2760 hc         1 9ZH       0.056700
     42 H12          3.9020    -6.7010    82.7940 hc         1 9ZH       0.072200
     43 H13          4.6350    -6.8670    84.4130 hc         1 9ZH       0.072200
     44 H16          4.3470    -0.4370    83.7100 ha         1 9ZH       0.123000
     45 H17          2.3850     0.4420    84.8360 ha         1 9ZH       0.126000
     46 H18         -5.2530    -7.4300    80.3150 ha         1 9ZH       0.110000
     47 H19         -3.4870    -7.0300    84.2310 ha         1 9ZH       0.110000
     48 H20         -5.3390    -3.8070    84.9850 hc         1 9ZH       0.048700
     49 H21         -4.7720    -5.2630    85.7760 hc         1 9ZH       0.048700
     50 H22         -0.7980     0.5270    86.5860 h1         1 9ZH       0.057367
     51 H23          0.9480     0.2600    86.5480 h1         1 9ZH       0.057367
     52 H24          0.1950     1.3880    85.3790 h1         1 9ZH       0.057367
     53 H25          1.9460    -4.9660    82.2420 hc         1 9ZH       0.058367
     54 H26          1.0810    -3.8860    81.1250 hc         1 9ZH       0.058367
     55 H27          2.7990    -4.0120    81.0180 hc         1 9ZH       0.058367
     56 H28          5.8810    -3.0680    80.4410 ho         1 9ZH       0.549000
     57 C28         -2.8350    -3.0200    83.8910 c3         1 9ZH       0.098000
     58 C31          0.0680     0.4400    85.9180 c3         1 9ZH       0.083300
     59 O8           4.3210    -4.3450    84.6030 o          1 9ZH      -0.532100
@<TRIPOS>BOND
     1     1     3 ar  
     2     1    15 1   
     3     1    16 ar  
     4     2    17 ar  
     5     2    18 ar  
     6     2    25 1   
     7     3    18 ar  
     8     3    24 1   
     9     4     5 ar  
    10     4    22 ar  
    11     4    23 1   
    12     5     6 ar  
    13     5    31 1   
    14     6    21 ar  
    15     6    32 1   
    16     7    21 ar  
    17     7    22 ar  
    18     7    33 1   
    19     8    23 1   
    20     8    34 1   
    21     8    35 1   
    22     8    57 1   
    23     9    10 1   
    24     9    14 1   
    25     9    38 1   
    26     9    39 1   
    27    10    11 1   
    28    10    40 1   
    29    10    41 1   
    30    11    12 1   
    31    11    42 1   
    32    11    43 1   
    33    12    13 1   
    34    12    59 2   
    35    13    14 2   
    36    13    15 1   
    37    14    27 1   
    38    15    30 2   
    39    16    17 ar  
    40    16    44 1   
    41    17    45 1   
    42    18    19 1   
    43    19    26 1   
    44    19    28 2   
    45    20    25 1   
    46    20    26 1   
    47    20    29 2   
    48    21    46 1   
    49    22    47 1   
    50    23    48 1   
    51    23    49 1   
    52    24    53 1   
    53    24    54 1   
    54    24    55 1   
    55    25    58 1   
    56    26    57 1   
    57    27    56 1   
    58    36    57 1   
    59    37    57 1   
    60    50    58 1   
    61    51    58 1   
    62    52    58 1   
@<TRIPOS>SUBSTRUCTURE
     1 9ZH         1 TEMP              0 ****  ****    0 ROOT
