@<TRIPOS>MOLECULE
9ZH
   59    62     1     0     0
SMALL
abcg2


@<TRIPOS>ATOM
      1 C10          3.0900    -2.4770    82.7840 ca         1 9ZH      -0.176600
      2 C13          0.9720    -1.3680    84.2130 ca         1 9ZH       0.138600
      3 C15          1.8250    -3.0390    82.6410 ca         1 9ZH       0.084700
      4 C20         -4.8570    -5.2540    83.6680 ca         1 9ZH      -0.082300
      5 C21         -5.7680    -4.7890    82.7240 ca         1 9ZH      -0.104500
      6 C22         -5.9790    -5.4760    81.5340 ca         1 9ZH      -0.108000
      7 C24         -4.3630    -7.1170    82.2050 ca         1 9ZH      -0.108000
      8 C26         -3.2010    -3.9200    85.0450 c3         1 9ZH      -0.090400
      9 C1           6.6910    -5.8800    81.5160 c6         1 9ZH      -0.075200
     10 C2           6.5700    -6.4960    82.8970 c6         1 9ZH      -0.064400
     11 C3           5.1160    -6.5090    83.3370 c6         1 9ZH      -0.182400
     12 C4           4.5000    -5.1310    83.3270 c          1 9ZH       0.610300
     13 C5           4.9230    -4.2210    82.2540 ce         1 9ZH      -0.495400
     14 C6           5.9860    -4.5710    81.4230 c2         1 9ZH       0.287900
     15 C9           4.2840    -2.9420    82.0190 c          1 9ZH       0.640900
     16 C11          3.2830    -1.3630    83.5940 ca         1 9ZH      -0.006000
     17 C12          2.2480    -0.8130    84.3130 ca         1 9ZH      -0.186000
     18 C14          0.7590    -2.4770    83.3770 ca         1 9ZH      -0.214600
     19 C16         -0.5940    -3.0400    83.3140 c          1 9ZH       0.593600
     20 C19         -1.3610    -1.2740    84.8440 c          1 9ZH       0.622000
     21 C23         -5.2750    -6.6430    81.2700 ca         1 9ZH      -0.112000
     22 C25         -4.1580    -6.4280    83.3910 ca         1 9ZH      -0.104500
     23 C27         -4.6110    -4.5040    84.9510 c3         1 9ZH      -0.027100
     24 C32          1.6400    -4.1890    81.6930 c3         1 9ZH      -0.057800
     25 N17         -0.0720    -0.8210    84.9360 n          1 9ZH      -0.302000
     26 N18         -1.5750    -2.3560    84.0130 n          1 9ZH      -0.372400
     27 O7           6.4190    -3.7830    80.4920 oh         1 9ZH      -0.539100
     28 O29         -0.8900    -4.0450    82.6980 o          1 9ZH      -0.525000
     29 O30         -2.2760    -0.7630    85.4580 o          1 9ZH      -0.560000
     30 O33          4.7290    -2.1560    81.1680 o          1 9ZH      -0.600100
     31 H1          -6.3200    -3.8770    82.9210 ha         1 9ZH       0.110000
     32 H2          -6.6920    -5.0970    80.8130 ha         1 9ZH       0.110000
     33 H3          -3.8110    -8.0280    82.0100 ha         1 9ZH       0.110000
     34 H4          -2.4650    -4.7250    84.9760 hc         1 9ZH       0.053200
     35 H5          -3.0740    -3.4590    86.0260 hc         1 9ZH       0.053200
     36 H6          -3.6320    -2.0540    84.0500 h1         1 9ZH       0.074200
     37 H7          -3.0860    -3.3180    82.9700 h1         1 9ZH       0.074200
     38 H8           6.2380    -6.5420    80.7680 hc         1 9ZH       0.079700
     39 H9           7.7330    -5.7450    81.2210 hc         1 9ZH       0.079700
     40 H10          6.9700    -7.5100    82.8840 hc         1 9ZH       0.056700
     41 H11          7.1710    -5.9270    83.6100 hc         1 9ZH       0.056700
     42 H12          4.5310    -7.1310    82.6500 hc         1 9ZH       0.072200
     43 H13          5.0000    -6.9360    84.3330 hc         1 9ZH       0.072200
     44 H16          4.2670    -0.9200    83.6790 ha         1 9ZH       0.123000
     45 H17          2.4460     0.0440    84.9370 ha         1 9ZH       0.126000
     46 H18         -5.4360    -7.1790    80.3440 ha         1 9ZH       0.110000
     47 H19         -3.4450    -6.8110    84.1130 ha         1 9ZH       0.110000
     48 H20         -5.3470    -3.7030    85.0560 hc         1 9ZH       0.048700
     49 H21         -4.7620    -5.1750    85.8010 hc         1 9ZH       0.048700
     50 H22         -0.7160     0.5670    86.3490 h1         1 9ZH       0.057367
     51 H23          0.9520     0.0380    86.5560 h1         1 9ZH       0.057367
     52 H24          0.5300     1.1710    85.2560 h1         1 9ZH       0.057367
     53 H25          1.3490    -5.1000    82.2120 hc         1 9ZH       0.058367
     54 H26          0.8680    -3.9790    80.9560 hc         1 9ZH       0.058367
     55 H27          2.5550    -4.4020    81.1450 hc         1 9ZH       0.058367
     56 H28          5.8540    -2.9410    80.5350 ho         1 9ZH       0.549000
     57 C28         -2.9390    -2.8870    83.9570 c3         1 9ZH       0.098000
     58 C31          0.1920     0.3040    85.8220 c3         1 9ZH       0.083300
     59 O8           3.6780    -4.8120    84.1640 o          1 9ZH      -0.532100
@<TRIPOS>BOND
     1     1     3 ar  
     2     1    15 1   
     3     1    16 ar  
     4     2    17 ar  
     5     2    18 ar  
     6     2    25 1   
     7     3    18 ar  
     8     3    24 1   
     9     4     5 ar  
    10     4    22 ar  
    11     4    23 1   
    12     5     6 ar  
    13     5    31 1   
    14     6    21 ar  
    15     6    32 1   
    16     7    21 ar  
    17     7    22 ar  
    18     7    33 1   
    19     8    23 1   
    20     8    34 1   
    21     8    35 1   
    22     8    57 1   
    23     9    10 1   
    24     9    14 1   
    25     9    38 1   
    26     9    39 1   
    27    10    11 1   
    28    10    40 1   
    29    10    41 1   
    30    11    12 1   
    31    11    42 1   
    32    11    43 1   
    33    12    13 1   
    34    12    59 2   
    35    13    14 2   
    36    13    15 1   
    37    14    27 1   
    38    15    30 2   
    39    16    17 ar  
    40    16    44 1   
    41    17    45 1   
    42    18    19 1   
    43    19    26 1   
    44    19    28 2   
    45    20    25 1   
    46    20    26 1   
    47    20    29 2   
    48    21    46 1   
    49    22    47 1   
    50    23    48 1   
    51    23    49 1   
    52    24    53 1   
    53    24    54 1   
    54    24    55 1   
    55    25    58 1   
    56    26    57 1   
    57    27    56 1   
    58    36    57 1   
    59    37    57 1   
    60    50    58 1   
    61    51    58 1   
    62    52    58 1   
@<TRIPOS>SUBSTRUCTURE
     1 9ZH         1 TEMP              0 ****  ****    0 ROOT
