@<TRIPOS>MOLECULE
9ZJ
   34    36     1     0     0
SMALL
abcg2


@<TRIPOS>ATOM
      1 CAK          4.7980     1.8400    -1.0840 cx         1 9ZJ      -0.109900
      2 CAL          3.9520     3.0180    -0.7530 cx         1 9ZJ      -0.109900
      3 CAS          3.3440     1.8500    -1.4910 cx         1 9ZJ      -0.072600
      4 CAF          2.4170     0.9930    -0.8150 c1         1 9ZJ      -0.030100
      5 CAG          1.6340     0.2740    -0.2510 c1         1 9ZJ      -0.187100
      6 CAU          0.6730    -0.6030     0.4200 c6         1 9ZJ       0.289400
      7 CAT          0.5690    -0.1870     1.9060 c3         1 9ZJ       0.314000
      8 FAC          0.2230     1.0940     2.0390 f          1 9ZJ      -0.103667
      9 FAD         -0.3420    -0.9210     2.5420 f          1 9ZJ      -0.103667
     10 FAB          1.7340    -0.3510     2.5330 f          1 9ZJ      -0.103667
     11 OAN          1.1510    -1.9240     0.5070 os         1 9ZJ      -0.428000
     12 CAR          0.6510    -2.8630    -0.4190 c6         1 9ZJ       0.443500
     13 CAA          1.1610    -2.6230    -1.8330 c3         1 9ZJ      -0.156100
     14 NAM         -0.7890    -2.8830    -0.3110 nu         1 9ZJ      -0.945200
     15 CAP         -1.4040    -1.6730    -0.5170 ca         1 9ZJ       0.319000
     16 CAQ         -0.7030    -0.4990    -0.2210 ca         1 9ZJ      -0.182300
     17 CAJ         -1.2740     0.7390    -0.4880 ca         1 9ZJ      -0.030000
     18 CAO         -2.5580     0.8110    -0.9940 ca         1 9ZJ       0.072000
     19 CL          -3.2650     2.3620    -1.3200 cl         1 9ZJ      -0.199000
     20 CAH         -3.2850    -0.3440    -1.2470 ca         1 9ZJ      -0.047000
     21 CAI         -2.7050    -1.5760    -1.0200 ca         1 9ZJ      -0.172000
     22 H1           5.5240     1.9300    -1.8810 hc         1 9ZJ       0.079450
     23 H2           5.0850     1.1740    -0.2820 hc         1 9ZJ       0.079450
     24 H3           3.6560     3.1640     0.2770 hc         1 9ZJ       0.079450
     25 H4           4.0880     3.9300    -1.3200 hc         1 9ZJ       0.079450
     26 H5           3.1380     2.0000    -2.5450 hc         1 9ZJ       0.097700
     27 H6           1.0210    -3.8260    -0.0670 h2         1 9ZJ       0.094700
     28 H7           2.2510    -2.6060    -1.8500 hc         1 9ZJ       0.055033
     29 H8           0.8300    -3.4410    -2.4750 hc         1 9ZJ       0.055033
     30 H9           0.7980    -1.6900    -2.2650 hc         1 9ZJ       0.055033
     31 H10         -1.2350    -3.6810    -0.7370 hn         1 9ZJ       0.477000
     32 H11         -0.7160     1.6490    -0.3120 ha         1 9ZJ       0.142000
     33 H12         -4.2910    -0.2870    -1.6410 ha         1 9ZJ       0.130000
     34 H13         -3.2580    -2.4800    -1.2450 ha         1 9ZJ       0.120000
@<TRIPOS>BOND
     1     1     2 1   
     2     1     3 1   
     3     1    22 1   
     4     1    23 1   
     5     2     3 1   
     6     2    24 1   
     7     2    25 1   
     8     3     4 1   
     9     3    26 1   
    10     4     5 3   
    11     5     6 1   
    12     6     7 1   
    13     6    11 1   
    14     6    16 1   
    15     7     8 1   
    16     7     9 1   
    17     7    10 1   
    18    11    12 1   
    19    12    13 1   
    20    12    14 1   
    21    12    27 1   
    22    13    28 1   
    23    13    29 1   
    24    13    30 1   
    25    14    15 1   
    26    14    31 1   
    27    15    16 ar  
    28    15    21 ar  
    29    16    17 ar  
    30    17    18 ar  
    31    17    32 1   
    32    18    19 1   
    33    18    20 ar  
    34    20    21 ar  
    35    20    33 1   
    36    21    34 1   
@<TRIPOS>SUBSTRUCTURE
     1 9ZJ         1 TEMP              0 ****  ****    0 ROOT
