@<TRIPOS>MOLECULE
9ZJ
   34    36     1     0     0
SMALL
No Charge or Current Charge


@<TRIPOS>ATOM
      1 CAK          3.8020     2.8100    -0.8460 cx         1 9ZJ      -0.109900
      2 CAL          3.4050     2.2680    -2.1990 cx         1 9ZJ      -0.109900
      3 CAS          3.7850     1.3170    -1.0860 cx         1 9ZJ      -0.072600
      4 CAF          2.7560     0.5160    -0.4640 c1         1 9ZJ      -0.030100
      5 CAG          1.8830    -0.1430     0.0510 c1         1 9ZJ      -0.187100
      6 CAU          0.7710    -0.9090     0.6680 c6         1 9ZJ       0.289400
      7 CAT          0.7930    -0.6770     2.2360 c3         1 9ZJ       0.314000
      8 FAC          0.7150     0.6320     2.5800 f          1 9ZJ      -0.103667
      9 FAD         -0.2450    -1.3020     2.8410 f          1 9ZJ      -0.103667
     10 FAB          1.9250    -1.1590     2.8060 f          1 9ZJ      -0.103667
     11 OAN          1.0460    -2.3320     0.4740 os         1 9ZJ      -0.428000
     12 CAR          0.5490    -3.0110    -0.6940 c6         1 9ZJ       0.443500
     13 CAA          1.2950    -2.5410    -1.9670 c3         1 9ZJ      -0.156100
     14 NAM         -0.8680    -2.7300    -0.7960 nu         1 9ZJ      -0.945200
     15 CAP         -1.3560    -1.4470    -0.6470 ca         1 9ZJ       0.319000
     16 CAQ         -0.5840    -0.4960     0.0390 ca         1 9ZJ      -0.182300
     17 CAJ         -1.0590     0.8350     0.1210 ca         1 9ZJ      -0.030000
     18 CAO         -2.2950     1.1860    -0.4480 ca         1 9ZJ       0.072000
     19 Cl          -2.8730     2.8430    -0.3350 cl         1 9ZJ      -0.199000
     20 CAH         -3.0660     0.2190    -1.1120 ca         1 9ZJ      -0.047000
     21 CAI         -2.5910    -1.0990    -1.2150 ca         1 9ZJ      -0.172000
     22 H1           4.7710     3.2970    -0.7590 hc         1 9ZJ       0.079450
     23 H2           3.0200     3.2430    -0.2260 hc         1 9ZJ       0.079450
     24 H3           2.3580     2.3370    -2.4840 hc         1 9ZJ       0.079450
     25 H4           4.1080     2.3900    -3.0200 hc         1 9ZJ       0.079450
     26 H5           4.7480     0.8160    -1.1680 hc         1 9ZJ       0.097700
     27 H6           0.7300    -4.0930    -0.5740 h2         1 9ZJ       0.094700
     28 H7           2.3800    -2.6050    -1.8290 hc         1 9ZJ       0.055033
     29 H8           1.0340    -3.1770    -2.8200 hc         1 9ZJ       0.055033
     30 H9           1.0440    -1.5110    -2.2440 hc         1 9ZJ       0.055033
     31 H10         -1.4330    -3.3640    -1.3600 hn         1 9ZJ       0.477000
     32 H11         -0.4740     1.6070     0.6140 ha         1 9ZJ       0.142000
     33 H12         -4.0210     0.4940    -1.5540 ha         1 9ZJ       0.130000
     34 H13         -3.1780    -1.8430    -1.7440 ha         1 9ZJ       0.120000
@<TRIPOS>BOND
     1     1     2 1   
     2     1     3 1   
     3     1    22 1   
     4     1    23 1   
     5     2     3 1   
     6     2    24 1   
     7     2    25 1   
     8     3     4 1   
     9     3    26 1   
    10     4     5 3   
    11     5     6 1   
    12     6     7 1   
    13     6    11 1   
    14     6    16 1   
    15     7     8 1   
    16     7     9 1   
    17     7    10 1   
    18    11    12 1   
    19    12    13 1   
    20    12    14 1   
    21    12    27 1   
    22    13    28 1   
    23    13    29 1   
    24    13    30 1   
    25    14    15 1   
    26    14    31 1   
    27    15    16 ar  
    28    15    21 ar  
    29    16    17 ar  
    30    17    18 ar  
    31    17    32 1   
    32    18    19 1   
    33    18    20 ar  
    34    20    21 ar  
    35    20    33 1   
    36    21    34 1   
@<TRIPOS>SUBSTRUCTURE
     1 9ZJ         1 TEMP              0 ****  ****    0 ROOT
