@<TRIPOS>MOLECULE
9ZK
  100   103     1     0     0
SMALL
No Charge or Current Charge


@<TRIPOS>ATOM
      1 C40         -1.4600     2.2600    -3.8760 ca         1 9ZK      -0.054000
      2 C41         -2.3650     1.5140    -4.6530 ca         1 9ZK      -0.177000
      3 C35          7.9810    -1.5060     0.3830 ca         1 9ZK      -0.129000
      4 C34          8.5190    -0.9190    -0.7830 ca         1 9ZK      -0.092000
      5 C33          7.8700     0.1790    -1.3990 ca         1 9ZK      -0.140000
      6 C32          6.6760     0.7010    -0.8540 ca         1 9ZK      -0.065000
      7 C42         -3.0570     0.4350    -4.0830 ca         1 9ZK       0.138100
      8 C31          6.1720     0.0930     0.3040 ca         1 9ZK      -0.100800
      9 C39         -1.2450     1.9330    -2.5210 ca         1 9ZK      -0.147300
     10 C30          6.7960    -0.9660     0.8990 ca         1 9ZK      -0.050200
     11 C28          4.9330    -0.5320     2.1570 cc         1 9ZK      -0.152100
     12 C27          4.9940     0.3630     1.0950 cd         1 9ZK      -0.140400
     13 C38         -0.2470     2.7420    -1.6920 c3         1 9ZK       0.177000
     14 C25          3.0070     1.0670    -0.3610 c3         1 9ZK       0.031700
     15 C22          1.4610    -0.6140     0.7780 c          1 9ZK       0.576100
     16 C20         -2.3250    -5.2980    -1.8210 c3         1 9ZK       0.150800
     17 C19         -1.5150    -3.9860    -1.8640 c3         1 9ZK      -0.080400
     18 C16          0.7210    -2.0100     0.7820 c3         1 9ZK       0.048700
     19 C14         -1.2990    -1.3950     2.2080 c          1 9ZK       0.616100
     20 C13         -1.6980    -0.3550     4.4840 c3         1 9ZK      -0.083100
     21 C12         -1.9420    -1.6000     3.5970 c3         1 9ZK      -0.137700
     22 C11         -3.4340    -2.0540     3.5240 c3         1 9ZK      -0.016200
     23 C44         -2.8490     0.1020    -2.7380 ca         1 9ZK      -0.177000
     24 C36          2.0150     2.2220    -0.7100 c          1 9ZK       0.590100
     25 N23          2.4210    -0.3170    -0.2310 n          1 9ZK      -0.388800
     26 N15         -0.1560    -2.1370     1.9770 ns         1 9ZK      -0.489900
     27 C09         -4.4520    -0.9630     3.1770 c2         1 9ZK      -0.121400
     28 C08         -4.7590    -0.6660     1.8980 c2         1 9ZK      -0.205200
     29 C07         -5.6670     0.4300     1.3600 c3         1 9ZK      -0.038200
     30 C06         -4.8810     1.4440     0.4950 c3         1 9ZK      -0.077400
     31 C02         -3.7270     2.1660     1.2360 c3         1 9ZK       0.176300
     32 C01         -4.2060     3.2260     2.2530 c3         1 9ZK      -0.114100
     33 O03         -2.9350     2.8230     0.2280 os         1 9ZK      -0.441100
     34 C04         -1.6090     3.0790     0.4780 c          1 9ZK       0.597100
     35 C46         -0.9280     3.7380    -0.7200 c3         1 9ZK      -0.147400
     36 N37          0.7360     1.8510    -1.0720 ns         1 9ZK      -0.489900
     37 N29          6.0720    -1.3540     2.0120 na         1 9ZK      -0.227700
     38 O47          2.3520     3.3990    -0.6980 o          1 9ZK      -0.605100
     39 C45         -1.9480     0.8470    -1.9590 ca         1 9ZK      -0.054000
     40 O43         -3.9350    -0.2910    -4.8300 oh         1 9ZK      -0.534100
     41 O05         -1.0370     2.8350     1.5310 o          1 9ZK      -0.502000
     42 O49         -1.7480    -0.6240     1.3760 o          1 9ZK      -0.587100
     43 N21         -2.9460    -5.5970    -3.1240 n8         1 9ZK      -0.993200
     44 O48          1.2030     0.2400     1.6180 o          1 9ZK      -0.615100
     45 H1          -0.9280     3.0930    -4.3310 ha         1 9ZK       0.122000
     46 H2          -2.5190     1.7810    -5.6960 ha         1 9ZK       0.126000
     47 H3           8.4710    -2.3500     0.8630 ha         1 9ZK       0.112000
     48 H4           9.4380    -1.3140    -1.2110 ha         1 9ZK       0.111000
     49 H5           8.2930     0.6240    -2.2970 ha         1 9ZK       0.112000
     50 H6           6.1680     1.5430    -1.3180 ha         1 9ZK       0.116000
     51 H7           4.2060    -0.6490     2.9560 h4         1 9ZK       0.218000
     52 H8           0.3160     3.3610    -2.4050 h1         1 9ZK       0.076700
     53 H9           3.3910     1.6540     1.7050 hc         1 9ZK       0.067700
     54 H10          4.4930     2.3680     0.5530 hc         1 9ZK       0.067700
     55 H11          3.6390     1.0350    -1.2580 h1         1 9ZK       0.077700
     56 H12          3.0990    -2.3370    -0.4440 h1         1 9ZK       0.047033
     57 H13          2.6260    -1.5210    -1.9690 h1         1 9ZK       0.047033
     58 H14          4.1580    -1.1190    -1.1670 h1         1 9ZK       0.047033
     59 H15         -1.6650    -6.1330    -1.5470 h1         1 9ZK       0.024700
     60 H16         -3.1180    -5.2190    -1.0640 h1         1 9ZK       0.024700
     61 H17         -0.7440    -4.0610    -2.6410 hc         1 9ZK       0.050200
     62 H18         -2.1800    -3.1610    -2.1480 hc         1 9ZK       0.050200
     63 H19         -1.6220    -3.5920     0.2580 hc         1 9ZK       0.039200
     64 H20         -0.1780    -4.4810    -0.2290 hc         1 9ZK       0.039200
     65 H21          0.6830    -2.4060    -1.3720 hc         1 9ZK       0.065200
     66 H22         -0.7050    -1.5130    -0.8020 hc         1 9ZK       0.065200
     67 H23          1.5030    -2.7680     0.9050 h1         1 9ZK       0.057700
     68 H24         -2.1530     0.5400     4.0420 hc         1 9ZK       0.044700
     69 H25         -2.1120    -0.5040     5.4890 hc         1 9ZK       0.044700
     70 H26         -0.6230    -0.1650     4.5880 hc         1 9ZK       0.044700
     71 H27         -1.3940    -2.4180     4.0820 hc         1 9ZK       0.044700
     72 H28         -3.4980    -2.8590     2.7810 hc         1 9ZK       0.045200
     73 H29         -3.7050    -2.5280     4.4760 hc         1 9ZK       0.045200
     74 H30         -5.8990     0.3670     4.1710 hc         1 9ZK       0.036367
     75 H31         -5.4580    -1.0470     5.1030 hc         1 9ZK       0.036367
     76 H32         -4.3310     0.3040     4.9570 hc         1 9ZK       0.036367
     77 H33         -3.3870    -0.7320    -2.2960 ha         1 9ZK       0.126000
     78 H34          0.1460    -2.7430     2.7300 hn         1 9ZK       0.300500
     79 H35         -4.2750    -1.2310     1.0980 ha         1 9ZK       0.190000
     80 H36         -6.4520    -0.0220     0.7410 hc         1 9ZK       0.044700
     81 H37         -6.1910     0.9750     2.1500 hc         1 9ZK       0.044700
     82 H38         -4.4660     0.9070    -0.3660 hc         1 9ZK       0.058200
     83 H39         -5.5760     2.1890     0.0900 hc         1 9ZK       0.058200
     84 H40         -3.1290     1.4130     1.7640 h1         1 9ZK       0.075700
     85 H41         -4.8150     3.9920     1.7590 hc         1 9ZK       0.044700
     86 H42         -4.8100     2.7590     3.0400 hc         1 9ZK       0.044700
     87 H43         -3.3550     3.7180     2.7360 hc         1 9ZK       0.044700
     88 H44         -0.1730     4.4380    -0.3490 hc         1 9ZK       0.078200
     89 H45         -1.6840     4.2750    -1.3040 hc         1 9ZK       0.078200
     90 H46          0.5400     0.8600    -1.0580 hn         1 9ZK       0.353500
     91 H47          6.3270    -2.1190     2.6300 hn         1 9ZK       0.349000
     92 H48         -1.8050     0.5830    -0.9160 ha         1 9ZK       0.122000
     93 H49         -3.9530     0.0820    -5.7370 ho         1 9ZK       0.461000
     94 H50         -2.2050    -5.7540    -3.8180 hn         1 9ZK       0.390000
     95 H51         -3.4210    -6.5060    -3.0670 hn         1 9ZK       0.390000
     96 C26          3.9730     1.4350     0.8020 c3         1 9ZK      -0.010200
     97 C24          3.1090    -1.3890    -0.9940 c3         1 9ZK       0.087300
     98 C17         -0.0310    -2.3370    -0.5460 c3         1 9ZK      -0.075400
     99 C10         -5.0630    -0.2960     4.4080 c3         1 9ZK      -0.056900
    100 C18         -0.8440    -3.6550    -0.5130 c3         1 9ZK      -0.068400
@<TRIPOS>BOND
     1     1     2 ar  
     2     1     9 ar  
     3     1    45 1   
     4     2     7 ar  
     5     2    46 1   
     6     3     4 ar  
     7     3    10 ar  
     8     3    47 1   
     9     4     5 ar  
    10     4    48 1   
    11     5     6 ar  
    12     5    49 1   
    13     6     8 ar  
    14     6    50 1   
    15     7    23 ar  
    16     7    40 1   
    17     8    10 ar  
    18     8    12 1   
    19     9    13 1   
    20     9    39 ar  
    21    10    37 1   
    22    11    12 2   
    23    11    37 1   
    24    11    51 1   
    25    12    96 1   
    26    13    35 1   
    27    13    36 1   
    28    13    52 1   
    29    14    24 1   
    30    14    25 1   
    31    14    55 1   
    32    14    96 1   
    33    15    18 1   
    34    15    25 1   
    35    15    44 2   
    36    16    17 1   
    37    16    43 1   
    38    16    59 1   
    39    16    60 1   
    40    17    61 1   
    41    17    62 1   
    42    17   100 1   
    43    18    26 1   
    44    18    67 1   
    45    18    98 1   
    46    19    21 1   
    47    19    26 1   
    48    19    42 2   
    49    20    21 1   
    50    20    68 1   
    51    20    69 1   
    52    20    70 1   
    53    21    22 1   
    54    21    71 1   
    55    22    27 1   
    56    22    72 1   
    57    22    73 1   
    58    23    39 ar  
    59    23    77 1   
    60    24    36 1   
    61    24    38 2   
    62    25    97 1   
    63    26    78 1   
    64    27    28 2   
    65    27    99 1   
    66    28    29 1   
    67    28    79 1   
    68    29    30 1   
    69    29    80 1   
    70    29    81 1   
    71    30    31 1   
    72    30    82 1   
    73    30    83 1   
    74    31    32 1   
    75    31    33 1   
    76    31    84 1   
    77    32    85 1   
    78    32    86 1   
    79    32    87 1   
    80    33    34 1   
    81    34    35 1   
    82    34    41 2   
    83    35    88 1   
    84    35    89 1   
    85    36    90 1   
    86    37    91 1   
    87    39    92 1   
    88    40    93 1   
    89    43    94 1   
    90    43    95 1   
    91    53    96 1   
    92    54    96 1   
    93    56    97 1   
    94    57    97 1   
    95    58    97 1   
    96    63   100 1   
    97    64   100 1   
    98    65    98 1   
    99    66    98 1   
   100    74    99 1   
   101    75    99 1   
   102    76    99 1   
   103    98   100 1   
@<TRIPOS>SUBSTRUCTURE
     1 9ZK         1 TEMP              0 ****  ****    0 ROOT
