@<TRIPOS>MOLECULE
9ZK
  100   103     1     0     0
SMALL
abcg2


@<TRIPOS>ATOM
      1 C40         -1.9350     2.5130    -3.4310 ca         1 9ZK      -0.054000
      2 C41         -2.9460     1.7560    -4.0060 ca         1 9ZK      -0.177000
      3 C35          7.3190    -1.2850     1.5670 ca         1 9ZK      -0.129000
      4 C34          8.1190    -0.8540     0.5260 ca         1 9ZK      -0.092000
      5 C33          7.6560     0.0870    -0.4090 ca         1 9ZK      -0.140000
      6 C32          6.3830     0.6130    -0.3190 ca         1 9ZK      -0.065000
      7 C42         -3.3820     0.5930    -3.3770 ca         1 9ZK       0.138100
      8 C31          5.5480     0.1960     0.7250 ca         1 9ZK      -0.100800
      9 C39         -1.3440     2.1410    -2.2300 ca         1 9ZK      -0.147300
     10 C30          6.0330    -0.7530     1.6530 ca         1 9ZK      -0.050200
     11 C28          3.9430    -0.2310     2.2240 cc         1 9ZK      -0.152100
     12 C27          4.2080     0.5210     1.1140 cd         1 9ZK      -0.140400
     13 C38         -0.2740     3.0210    -1.6230 c3         1 9ZK       0.177000
     14 C25          2.7220     0.7700    -0.8840 c3         1 9ZK       0.031700
     15 C22          1.2280    -0.8630     0.1360 c          1 9ZK       0.576100
     16 C20         -1.6710    -5.9980    -2.3300 c3         1 9ZK       0.150800
     17 C19         -1.1200    -4.5810    -2.3730 c3         1 9ZK      -0.080400
     18 C16          0.6910    -2.3020     0.2250 c3         1 9ZK       0.048700
     19 C14         -1.3630    -1.9210     1.5900 c          1 9ZK       0.616100
     20 C13         -1.1250    -0.5940     3.6800 c3         1 9ZK      -0.083100
     21 C12         -1.7730    -1.8320     3.0550 c3         1 9ZK      -0.137700
     22 C11         -3.2980    -1.9060     3.2620 c3         1 9ZK      -0.016200
     23 C44         -2.7960     0.2070    -2.1740 ca         1 9ZK      -0.177000
     24 C36          1.7100     1.6070    -1.6810 c          1 9ZK       0.590100
     25 N23          2.2430    -0.6010    -0.7150 n          1 9ZK      -0.388800
     26 N15         -0.1210    -2.4400     1.4100 ns         1 9ZK      -0.489900
     27 C09         -4.0980    -0.6200     3.1830 c2         1 9ZK      -0.121400
     28 C08         -4.6400    -0.2150     2.0320 c2         1 9ZK      -0.205200
     29 C07         -5.4640     1.0080     1.7660 c3         1 9ZK      -0.038200
     30 C06         -4.7270     2.0200     0.8800 c3         1 9ZK      -0.077400
     31 C02         -3.4800     2.5850     1.5430 c3         1 9ZK       0.176300
     32 C01         -3.7760     3.5080     2.7080 c3         1 9ZK      -0.114100
     33 O03         -2.7770     3.3150     0.5110 os         1 9ZK      -0.441100
     34 C04         -1.4620     3.4110     0.5800 c          1 9ZK       0.597100
     35 C46         -0.8600     4.0560    -0.6420 c3         1 9ZK      -0.147400
     36 N37          0.7830     2.2720    -0.9780 ns         1 9ZK      -0.489900
     37 N29          5.0330    -0.9890     2.5500 na         1 9ZK      -0.227700
     38 O47          1.7860     1.6580    -2.9000 o          1 9ZK      -0.605100
     39 C45         -1.7900     0.9760    -1.6120 ca         1 9ZK      -0.054000
     40 O43         -4.3540    -0.1920    -3.8880 oh         1 9ZK      -0.534100
     41 O05         -0.7960     2.9980     1.5010 o          1 9ZK      -0.502000
     42 O49         -2.0930    -1.5870     0.6750 o          1 9ZK      -0.587100
     43 N21         -2.1760    -6.4050    -3.6340 n8         1 9ZK      -0.993200
     44 O48          0.7080     0.0150     0.8080 o          1 9ZK      -0.615100
     45 H1          -1.6010     3.4100    -3.9390 ha         1 9ZK       0.122000
     46 H2          -3.3830     2.0650    -4.9490 ha         1 9ZK       0.126000
     47 H3           7.6790    -2.0090     2.2870 ha         1 9ZK       0.112000
     48 H4           9.1220    -1.2480     0.4300 ha         1 9ZK       0.111000
     49 H5           8.3120     0.4030    -1.2100 ha         1 9ZK       0.112000
     50 H6           6.0400     1.3390    -1.0470 ha         1 9ZK       0.116000
     51 H7           3.0420    -0.2830     2.8150 h4         1 9ZK       0.218000
     52 H8           0.1790     3.6040    -2.4270 h1         1 9ZK       0.076700
     53 H9           2.4620     1.7210     1.0760 hc         1 9ZK       0.067700
     54 H10          3.7680     2.3460     0.0970 hc         1 9ZK       0.067700
     55 H11          3.5700     0.6860    -1.5650 h1         1 9ZK       0.077700
     56 H12          2.7950    -2.6100    -1.0800 h1         1 9ZK       0.047033
     57 H13          2.8920    -1.5480    -2.4840 h1         1 9ZK       0.047033
     58 H14          4.0910    -1.4440    -1.1870 h1         1 9ZK       0.047033
     59 H15         -0.8930    -6.6660    -1.9320 h1         1 9ZK       0.024700
     60 H16         -2.4990    -6.0380    -1.6170 h1         1 9ZK       0.024700
     61 H17         -0.3200    -4.5270    -3.1200 hc         1 9ZK       0.050200
     62 H18         -1.9080    -3.9010    -2.7130 hc         1 9ZK       0.050200
     63 H19         -1.3890    -4.1660    -0.2840 hc         1 9ZK       0.039200
     64 H20          0.1870    -4.8200    -0.6800 hc         1 9ZK       0.039200
     65 H21          0.7330    -2.6770    -1.8840 hc         1 9ZK       0.065200
     66 H22         -0.7800    -1.9970    -1.3370 hc         1 9ZK       0.065200
     67 H23          1.5250    -2.9920     0.3800 h1         1 9ZK       0.057700
     68 H24         -1.4700     0.3190     3.1950 hc         1 9ZK       0.044700
     69 H25         -1.3590    -0.5370     4.7420 hc         1 9ZK       0.044700
     70 H26         -0.0410    -0.6220     3.5820 hc         1 9ZK       0.044700
     71 H27         -1.3530    -2.7090     3.5600 hc         1 9ZK       0.044700
     72 H28         -3.7080    -2.6390     2.5630 hc         1 9ZK       0.045200
     73 H29         -3.4550    -2.3290     4.2580 hc         1 9ZK       0.045200
     74 H30         -5.0010     0.9130     4.4410 hc         1 9ZK       0.036367
     75 H31         -4.6490    -0.6020     5.2570 hc         1 9ZK       0.036367
     76 H32         -3.3500     0.5050     4.8680 hc         1 9ZK       0.036367
     77 H33         -3.1210    -0.6970    -1.6750 ha         1 9ZK       0.126000
     78 H34          0.4020    -2.6210     2.2510 hn         1 9ZK       0.300500
     79 H35         -4.4310    -0.8130     1.1500 ha         1 9ZK       0.190000
     80 H36         -6.3740     0.7120     1.2340 hc         1 9ZK       0.044700
     81 H37         -5.8030     1.4860     2.6870 hc         1 9ZK       0.044700
     82 H38         -4.4310     1.5240    -0.0490 hc         1 9ZK       0.058200
     83 H39         -5.4080     2.8340     0.6120 hc         1 9ZK       0.058200
     84 H40         -2.8510     1.7550     1.8730 h1         1 9ZK       0.075700
     85 H41         -4.3880     4.3550     2.3930 hc         1 9ZK       0.044700
     86 H42         -4.3250     2.9720     3.4820 hc         1 9ZK       0.044700
     87 H43         -2.8630     3.8880     3.1640 hc         1 9ZK       0.044700
     88 H44         -0.0600     4.7240    -0.3220 hc         1 9ZK       0.078200
     89 H45         -1.6010     4.6480    -1.1780 hc         1 9ZK       0.078200
     90 H46          0.6760     2.0330    -0.0020 hn         1 9ZK       0.353500
     91 H47          5.0870    -1.6110     3.3390 hn         1 9ZK       0.349000
     92 H48         -1.3530     0.6350    -0.6810 ha         1 9ZK       0.122000
     93 H49         -4.6610     0.1620    -4.7300 ho         1 9ZK       0.461000
     94 H50         -1.4020    -6.4680    -4.2850 hn         1 9ZK       0.390000
     95 H51         -2.5530    -7.3420    -3.5720 hn         1 9ZK       0.390000
     96 C26          3.2610     1.4250     0.4010 c3         1 9ZK      -0.010200
     97 C24          3.0350    -1.6050    -1.4040 c3         1 9ZK       0.087300
     98 C17         -0.0050    -2.7160    -1.0790 c3         1 9ZK      -0.075400
     99 C10         -4.2890     0.0930     4.4940 c3         1 9ZK      -0.056900
    100 C18         -0.5850    -4.1220    -1.0230 c3         1 9ZK      -0.068400
@<TRIPOS>BOND
     1     1     2 ar  
     2     1     9 ar  
     3     1    45 1   
     4     2     7 ar  
     5     2    46 1   
     6     3     4 ar  
     7     3    10 ar  
     8     3    47 1   
     9     4     5 ar  
    10     4    48 1   
    11     5     6 ar  
    12     5    49 1   
    13     6     8 ar  
    14     6    50 1   
    15     7    23 ar  
    16     7    40 1   
    17     8    10 ar  
    18     8    12 1   
    19     9    13 1   
    20     9    39 ar  
    21    10    37 1   
    22    11    12 2   
    23    11    37 1   
    24    11    51 1   
    25    12    96 1   
    26    13    35 1   
    27    13    36 1   
    28    13    52 1   
    29    14    24 1   
    30    14    25 1   
    31    14    55 1   
    32    14    96 1   
    33    15    18 1   
    34    15    25 1   
    35    15    44 2   
    36    16    17 1   
    37    16    43 1   
    38    16    59 1   
    39    16    60 1   
    40    17    61 1   
    41    17    62 1   
    42    17   100 1   
    43    18    26 1   
    44    18    67 1   
    45    18    98 1   
    46    19    21 1   
    47    19    26 1   
    48    19    42 2   
    49    20    21 1   
    50    20    68 1   
    51    20    69 1   
    52    20    70 1   
    53    21    22 1   
    54    21    71 1   
    55    22    27 1   
    56    22    72 1   
    57    22    73 1   
    58    23    39 ar  
    59    23    77 1   
    60    24    36 1   
    61    24    38 2   
    62    25    97 1   
    63    26    78 1   
    64    27    28 2   
    65    27    99 1   
    66    28    29 1   
    67    28    79 1   
    68    29    30 1   
    69    29    80 1   
    70    29    81 1   
    71    30    31 1   
    72    30    82 1   
    73    30    83 1   
    74    31    32 1   
    75    31    33 1   
    76    31    84 1   
    77    32    85 1   
    78    32    86 1   
    79    32    87 1   
    80    33    34 1   
    81    34    35 1   
    82    34    41 2   
    83    35    88 1   
    84    35    89 1   
    85    36    90 1   
    86    37    91 1   
    87    39    92 1   
    88    40    93 1   
    89    43    94 1   
    90    43    95 1   
    91    53    96 1   
    92    54    96 1   
    93    56    97 1   
    94    57    97 1   
    95    58    97 1   
    96    63   100 1   
    97    64   100 1   
    98    65    98 1   
    99    66    98 1   
   100    74    99 1   
   101    75    99 1   
   102    76    99 1   
   103    98   100 1   
@<TRIPOS>SUBSTRUCTURE
     1 9ZK         1 TEMP              0 ****  ****    0 ROOT
