@<TRIPOS>MOLECULE
9ZL
   45    47     1     0     0
SMALL
bcc


@<TRIPOS>ATOM
      1 C13        -32.5990   -27.5040     5.2180 cc         1 9ZL       0.365200
      2 C15        -34.7400   -27.7130     4.7610 cd         1 9ZL       0.519900
      3 C17        -32.0650   -25.0250     5.7140 c3         1 9ZL       0.312100
      4 C20        -38.4030   -28.2860     4.0940 ca         1 9ZL      -0.224000
      5 C21        -38.4160   -29.6120     3.6630 ca         1 9ZL       0.185100
      6 C22        -37.1880   -30.2880     3.6100 ca         1 9ZL      -0.029600
      7 C26        -40.7960   -29.6890     3.2990 c3         1 9ZL       0.156100
      8 C28        -40.9770   -28.8340     2.0570 c3         1 9ZL      -0.108600
      9 C02        -30.9890   -24.5840     1.5640 ca         1 9ZL       0.442200
     10 C03        -31.2920   -24.7760     2.9000 ca         1 9ZL      -0.307300
     11 C04        -31.9820   -23.7700     3.5900 ca         1 9ZL       0.232600
     12 C05        -32.3320   -22.6220     2.8520 ca         1 9ZL      -0.289300
     13 C06        -31.9750   -22.5590     1.5250 ca         1 9ZL       0.345600
     14 C07        -32.2930   -21.3470     0.6890 c3         1 9ZL       0.627600
     15 C12        -32.9300   -26.1920     5.3480 cd         1 9ZL      -0.205700
     16 C18        -36.0030   -28.3460     4.3950 ca         1 9ZL      -0.181500
     17 C19        -37.2170   -27.6700     4.4550 ca         1 9ZL      -0.067000
     18 C23        -36.0060   -29.6750     3.9670 ca         1 9ZL      -0.038000
     19 C27        -41.7980   -30.8230     3.3560 c3         1 9ZL      -0.108600
     20 F08        -31.1930   -20.6190     0.4550 f          1 9ZL      -0.229633
     21 F09        -33.1830   -20.5370     1.2700 f          1 9ZL      -0.229633
     22 F10        -32.7890   -21.6910    -0.5020 f          1 9ZL      -0.229633
     23 N01        -31.3120   -23.5040     0.8660 nb         1 9ZL      -0.666000
     24 N11        -32.3000   -23.8610     4.8990 nu         1 9ZL      -0.784600
     25 N14        -33.6160   -28.3480     4.8930 nc         1 9ZL      -0.647000
     26 S16        -34.6100   -26.0040     5.0310 ss         1 9ZL      -0.169300
     27 CL1        -37.1700   -31.9330     3.0800 cl         1 9ZL      -0.086400
     28 H131       -31.5990   -27.8940     5.3510 h4         1 9ZL       0.042100
     29 H171       -31.0180   -25.3370     5.6670 h1         1 9ZL       0.064200
     30 H172       -32.2510   -24.7310     6.7480 h1         1 9ZL       0.064200
     31 H201       -39.3180   -27.7150     4.1600 ha         1 9ZL       0.142000
     32 H261       -40.9100   -29.0740     4.1990 h1         1 9ZL       0.043700
     33 H283       -41.9640   -28.3730     2.0740 hc         1 9ZL       0.050033
     34 H282       -40.2430   -28.0310     1.9840 hc         1 9ZL       0.050033
     35 H281       -40.9060   -29.4450     1.1560 hc         1 9ZL       0.050033
     36 H021       -30.4510   -25.3590     1.0300 h4         1 9ZL       0.025100
     37 H031       -30.9870   -25.6950     3.3790 ha         1 9ZL       0.149000
     38 H051       -32.8700   -21.8170     3.3340 ha         1 9ZL       0.152000
     39 H191       -37.2640   -26.6420     4.7930 ha         1 9ZL       0.134000
     40 H231       -35.0780   -30.2280     3.9090 ha         1 9ZL       0.170000
     41 H271       -41.6640   -31.4310     4.2500 hc         1 9ZL       0.050033
     42 H273       -42.8080   -30.4140     3.3750 hc         1 9ZL       0.050033
     43 H272       -41.7120   -31.4660     2.4790 hc         1 9ZL       0.050033
     44 H111       -32.8060   -23.0980     5.3180 hn         1 9ZL       0.442800
     45 O25        -39.4970   -30.3040     3.3110 os         1 9ZL      -0.309900
@<TRIPOS>BOND
     1     1    15 2   
     2     1    25 1   
     3     1    28 1   
     4     2    16 1   
     5     2    25 2   
     6     2    26 1   
     7     3    15 1   
     8     3    24 1   
     9     3    29 1   
    10     3    30 1   
    11     4     5 ar  
    12     4    17 ar  
    13     4    31 1   
    14     5     6 ar  
    15     5    45 1   
    16     6    18 ar  
    17     6    27 1   
    18     7     8 1   
    19     7    19 1   
    20     7    32 1   
    21     7    45 1   
    22     8    33 1   
    23     8    34 1   
    24     8    35 1   
    25     9    10 ar  
    26     9    23 ar  
    27     9    36 1   
    28    10    11 ar  
    29    10    37 1   
    30    11    12 ar  
    31    11    24 1   
    32    12    13 ar  
    33    12    38 1   
    34    13    14 1   
    35    13    23 ar  
    36    14    20 1   
    37    14    21 1   
    38    14    22 1   
    39    15    26 1   
    40    16    17 ar  
    41    16    18 ar  
    42    17    39 1   
    43    18    40 1   
    44    19    41 1   
    45    19    42 1   
    46    19    43 1   
    47    24    44 1   
@<TRIPOS>SUBSTRUCTURE
     1 9ZL         1 TEMP              0 ****  ****    0 ROOT
