@<TRIPOS>MOLECULE
9ZL
   45    47     1     0     0
SMALL
No Charge or Current Charge


@<TRIPOS>ATOM
      1 C13        -32.5240   -27.1610     4.7210 cc         1 9ZL       0.299900
      2 C15        -34.7140   -27.4840     4.6400 cd         1 9ZL       0.519900
      3 C17        -32.0370   -24.9720     5.9830 c3         1 9ZL       0.312100
      4 C20        -38.4330   -28.2790     4.3500 ca         1 9ZL      -0.206000
      5 C21        -38.4130   -29.4800     3.6090 ca         1 9ZL       0.185100
      6 C22        -37.1720   -30.0250     3.2220 ca         1 9ZL       0.062000
      7 C26        -40.8930   -29.6050     3.3900 c3         1 9ZL       0.179300
      8 C28        -41.0810   -28.5290     2.2970 c3         1 9ZL      -0.108600
      9 C02        -30.2750   -24.5070     1.9420 ca         1 9ZL       0.376900
     10 C03        -30.6080   -24.5460     3.2990 ca         1 9ZL      -0.224000
     11 C04        -31.7130   -23.8180     3.7400 ca         1 9ZL       0.371000
     12 C05        -32.4410   -23.0720     2.8120 ca         1 9ZL      -0.206000
     13 C06        -32.0520   -23.0790     1.4610 ca         1 9ZL       0.280300
     14 C07        -32.8570   -22.2630     0.4260 c3         1 9ZL       0.263700
     15 C12        -32.9170   -26.0390     5.4050 cd         1 9ZL      -0.285300
     16 C18        -35.9850   -28.1640     4.2920 ca         1 9ZL      -0.181500
     17 C19        -37.2330   -27.6280     4.6850 ca         1 9ZL      -0.049000
     18 C23        -35.9740   -29.3730     3.5570 ca         1 9ZL      -0.020000
     19 C27        -41.8780   -30.7770     3.2250 c3         1 9ZL      -0.108600
     20 F08        -32.8770   -20.9460     0.7390 f          1 9ZL      -0.108333
     21 F09        -34.1470   -22.6700     0.3690 f          1 9ZL      -0.108333
     22 F10        -32.3660   -22.3550    -0.8340 f          1 9ZL      -0.108333
     23 N01        -30.9770   -23.7920     1.0350 nb         1 9ZL      -0.666000
     24 N11        -32.0970   -23.8200     5.0780 nu         1 9ZL      -0.978200
     25 N14        -33.5340   -27.9820     4.2860 nc         1 9ZL      -0.647000
     26 S16        -34.6640   -25.9690     5.5460 ss         1 9ZL      -0.024400
     27 Cl1        -37.0960   -31.5310     2.3040 cl         1 9ZL      -0.178000
     28 H131       -31.5040   -27.4440     4.4970 h4         1 9ZL       0.042100
     29 H171       -31.0070   -25.3450     6.0850 h1         1 9ZL       0.064200
     30 H172       -32.3980   -24.6990     6.9850 h1         1 9ZL       0.064200
     31 H201       -39.3660   -27.8350     4.6800 ha         1 9ZL       0.124000
     32 H261       -41.0490   -29.1680     4.3840 h1         1 9ZL       0.043700
     33 H283       -42.1040   -28.1360     2.3230 hc         1 9ZL       0.050033
     34 H282       -40.3950   -27.6880     2.4430 hc         1 9ZL       0.050033
     35 H281       -40.9020   -28.9520     1.3010 hc         1 9ZL       0.050033
     36 H021       -29.4170   -25.0630     1.5650 h4         1 9ZL       0.025100
     37 H031       -30.0060   -25.1290     3.9850 ha         1 9ZL       0.131000
     38 H051       -33.3050   -22.4960     3.1270 ha         1 9ZL       0.134000
     39 H191       -37.2900   -26.7040     5.2550 ha         1 9ZL       0.116000
     40 H231       -35.0340   -29.8190     3.2390 ha         1 9ZL       0.152000
     41 H271       -41.7130   -31.5290     4.0060 hc         1 9ZL       0.050033
     42 H273       -42.9120   -30.4240     3.3060 hc         1 9ZL       0.050033
     43 H272       -41.7530   -31.2590     2.2470 hc         1 9ZL       0.050033
     44 H111       -32.8340   -23.1490     5.2980 hn         1 9ZL       0.498000
     45 O25        -39.5700   -30.1610     3.2630 os         1 9ZL      -0.333100
@<TRIPOS>BOND
     1     1    15 2   
     2     1    25 1   
     3     1    28 1   
     4     2    16 1   
     5     2    25 2   
     6     2    26 1   
     7     3    15 1   
     8     3    24 1   
     9     3    29 1   
    10     3    30 1   
    11     4     5 ar  
    12     4    17 ar  
    13     4    31 1   
    14     5     6 ar  
    15     5    45 1   
    16     6    18 ar  
    17     6    27 1   
    18     7     8 1   
    19     7    19 1   
    20     7    32 1   
    21     7    45 1   
    22     8    33 1   
    23     8    34 1   
    24     8    35 1   
    25     9    10 ar  
    26     9    23 ar  
    27     9    36 1   
    28    10    11 ar  
    29    10    37 1   
    30    11    12 ar  
    31    11    24 1   
    32    12    13 ar  
    33    12    38 1   
    34    13    14 1   
    35    13    23 ar  
    36    14    20 1   
    37    14    21 1   
    38    14    22 1   
    39    15    26 1   
    40    16    17 ar  
    41    16    18 ar  
    42    17    39 1   
    43    18    40 1   
    44    19    41 1   
    45    19    42 1   
    46    19    43 1   
    47    24    44 1   
@<TRIPOS>SUBSTRUCTURE
     1 9ZL         1 TEMP              0 ****  ****    0 ROOT
