@<TRIPOS>MOLECULE
9ZM
   73    78     1     0     0
SMALL
No Charge or Current Charge


@<TRIPOS>ATOM
      1 N14          8.4820     0.3030     1.7410 nc         1 9ZM      -0.378000
      2 C13          7.6890    -0.1070     0.7640 cd         1 9ZM       0.390400
      3 C18          0.3030     1.2470     2.8640 c3         1 9ZM       0.097400
      4 C19          0.6400     2.7510     2.7040 c3         1 9ZM      -0.132700
      5 C20         -1.1770     0.9300     2.6980 cc         1 9ZM       0.374800
      6 C22         -3.1960     0.1590     3.2240 cc         1 9ZM      -0.183000
      7 C23         -3.0820     0.3170     1.8640 cd         1 9ZM       0.305500
      8 C11          4.3840    -2.7400    -0.7750 ca         1 9ZM      -0.090000
      9 C27         -5.7080    -1.8890     0.2580 ca         1 9ZM      -0.141000
     10 Cl1          4.1200    -4.4660    -2.8900 cl         1 9ZM      -0.181000
     11 N2           1.1420     0.4060     1.9930 ns         1 9ZM      -0.484900
     12 C3           2.4620     0.1000     2.2180 c          1 9ZM       0.608300
     13 C4           3.0840    -0.7420     1.1620 ce         1 9ZM      -0.261200
     14 C6           5.1090    -2.0000     0.1870 ca         1 9ZM      -0.022800
     15 C7           6.5270    -2.0950     0.1900 ca         1 9ZM       0.008800
     16 C8           7.1830    -2.9160    -0.7490 ca         1 9ZM      -0.097000
     17 C9           6.4460    -3.6430    -1.6960 ca         1 9ZM      -0.089000
     18 C10          5.0480    -3.5530    -1.7070 ca         1 9ZM       0.126000
     19 N12          7.3040    -1.3760     1.0960 na         1 9ZM      -0.001500
     20 N15          8.5690    -0.7590     2.6290 nc         1 9ZM      -0.035000
     21 N16          7.8770    -1.8000     2.2390 nd         1 9ZM      -0.181800
     22 O17          3.0690     0.4950     3.2020 o          1 9ZM      -0.593100
     23 N21         -2.0000     0.6020     3.7470 na         1 9ZM      -0.287500
     24 N24         -1.8070     0.7460     1.5440 nd         1 9ZM      -0.658000
     25 C25         -4.0390    -0.1880     0.8530 ca         1 9ZM      -0.107500
     26 C26         -4.8830    -1.2640     1.2080 ca         1 9ZM      -0.064000
     27 C28         -5.7050    -1.4550    -1.0810 ca         1 9ZM       0.010000
     28 C29         -4.8850    -0.3730    -1.4370 ca         1 9ZM      -0.206000
     29 C30         -4.0680     0.2720    -0.4900 ca         1 9ZM       0.012000
     30 N31         -6.5050    -2.0410    -2.0980 ns         1 9ZM      -0.139000
     31 C32         -7.3960    -3.0980    -2.0860 c          1 9ZM       0.645100
     32 O33         -7.6880    -3.7930    -1.1210 o          1 9ZM      -0.518000
     33 O34         -7.9110    -3.2590    -3.3430 os         1 9ZM      -0.461100
     34 C35         -8.8660    -4.3170    -3.5510 c3         1 9ZM       0.171900
     35 C36          0.5460     3.2450     1.2710 ca         1 9ZM       0.341300
     36 N37         -0.6260     3.8130     0.9130 nb         1 9ZM      -0.633000
     37 C38         -0.7640     4.2390    -0.3650 ca         1 9ZM       0.333300
     38 C39          0.2700     4.1280    -1.3260 ca         1 9ZM       0.113000
     39 C40          1.4940     3.5580    -0.9460 ca         1 9ZM      -0.114000
     40 C41          1.6300     3.1120     0.3800 ca         1 9ZM      -0.147000
     41 C42         -2.1170     4.8450    -0.7090 c3         1 9ZM      -0.114700
     42 C43         -3.0760     3.8500    -1.4130 c3         1 9ZM      -0.155400
     43 C44         -3.6390     2.7520    -0.4880 c          1 9ZM       0.609100
     44 N45         -3.4180     1.4540    -0.9210 ns         1 9ZM      -0.149000
     45 O46         -4.3380     3.0240     0.4830 o          1 9ZM      -0.572100
     46 F47          0.0970     4.5600    -2.5970 f          1 9ZM      -0.172000
     47 H54          7.3760     0.4190    -0.1290 h5         1 9ZM       0.077100
     48 H55          0.5550     0.9780     3.8990 h1         1 9ZM       0.084700
     49 H57         -0.0220     3.3350     3.3550 hc         1 9ZM       0.067200
     50 H56          1.6540     2.9280     3.0800 hc         1 9ZM       0.067200
     51 H59         -4.0070    -0.2230     3.8320 h4         1 9ZM       0.164000
     52 H53          3.3000    -2.7050    -0.8020 ha         1 9ZM       0.138000
     53 H48          0.7150     0.0220     1.1580 hn         1 9ZM       0.322500
     54 H49          2.4340    -1.0190     0.3370 ha         1 9ZM       0.179000
     55 H51          8.2690    -2.9880    -0.7450 ha         1 9ZM       0.135000
     56 H52          6.9560    -4.2750    -2.4190 ha         1 9ZM       0.141000
     57 H58         -1.7370     0.6240     4.7260 hn         1 9ZM       0.351000
     58 H60         -4.8780    -1.6550     2.2220 ha         1 9ZM       0.121000
     59 H62         -4.9070    -0.0030    -2.4600 ha         1 9ZM       0.107000
     60 H63         -6.4080    -1.6030    -3.0040 hn         1 9ZM       0.163000
     61 H64         -9.7520    -4.1760    -2.9170 h1         1 9ZM       0.050367
     62 H65         -9.1970    -4.3340    -4.5970 h1         1 9ZM       0.050367
     63 H66         -8.4250    -5.2950    -3.3180 h1         1 9ZM       0.050367
     64 H67          2.3090     3.4630    -1.6590 ha         1 9ZM       0.137000
     65 H68          2.5620     2.6620     0.7130 ha         1 9ZM       0.128000
     66 H70         -2.6010     5.2430     0.1910 hc         1 9ZM       0.076200
     67 H69         -1.9640     5.7090    -1.3670 hc         1 9ZM       0.076200
     68 H71         -3.9320     4.4230    -1.7880 hc         1 9ZM       0.060700
     69 H72         -2.5690     3.3960    -2.2730 hc         1 9ZM       0.060700
     70 H73         -2.8690     1.3600    -1.7640 hn         1 9ZM       0.147000
     71 C5           4.3870    -1.1560     1.1720 cf         1 9ZM      -0.097200
     72 H61         -6.3280    -2.7180     0.5820 ha         1 9ZM       0.150000
     73 H50          4.9860    -0.8380     2.0290 ha         1 9ZM       0.214000
@<TRIPOS>BOND
     1     1     2 2   
     2     1    20 1   
     3     2    19 1   
     4     2    47 1   
     5     3     4 1   
     6     3     5 1   
     7     3    11 1   
     8     3    48 1   
     9     4    35 1   
    10     4    49 1   
    11     4    50 1   
    12     5    23 1   
    13     5    24 2   
    14     6     7 2   
    15     6    23 1   
    16     6    51 1   
    17     7    24 1   
    18     7    25 1   
    19     8    14 ar  
    20     8    18 ar  
    21     8    52 1   
    22     9    26 ar  
    23     9    27 ar  
    24     9    72 1   
    25    10    18 1   
    26    11    12 1   
    27    11    53 1   
    28    12    13 1   
    29    12    22 2   
    30    13    54 1   
    31    13    71 2   
    32    14    15 ar  
    33    14    71 1   
    34    15    16 ar  
    35    15    19 1   
    36    16    17 ar  
    37    16    55 1   
    38    17    18 ar  
    39    17    56 1   
    40    19    21 1   
    41    20    21 2   
    42    23    57 1   
    43    25    26 ar  
    44    25    29 ar  
    45    26    58 1   
    46    27    28 ar  
    47    27    30 1   
    48    28    29 ar  
    49    28    59 1   
    50    29    44 1   
    51    30    31 1   
    52    30    60 1   
    53    31    32 2   
    54    31    33 1   
    55    33    34 1   
    56    34    61 1   
    57    34    62 1   
    58    34    63 1   
    59    35    36 ar  
    60    35    40 ar  
    61    36    37 ar  
    62    37    38 ar  
    63    37    41 1   
    64    38    39 ar  
    65    38    46 1   
    66    39    40 ar  
    67    39    64 1   
    68    40    65 1   
    69    41    42 1   
    70    41    66 1   
    71    41    67 1   
    72    42    43 1   
    73    42    68 1   
    74    42    69 1   
    75    43    44 1   
    76    43    45 2   
    77    44    70 1   
    78    71    73 1   
@<TRIPOS>SUBSTRUCTURE
     1 9ZM         1 TEMP              0 ****  ****    0 ROOT
