@<TRIPOS>MOLECULE
9ZM
   73    78     1     0     0
SMALL
bcc


@<TRIPOS>ATOM
      1 N14          4.1750    -5.2320     2.3440 nc         1 9ZM      -0.378000
      2 C13          5.0710    -4.6140     1.6230 cd         1 9ZM       0.390400
      3 C18          0.7420     2.4200     2.5130 c3         1 9ZM       0.097400
      4 C19          0.7380     3.9460     2.2960 c3         1 9ZM      -0.132700
      5 C20         -0.6300     1.8160     2.4410 cc         1 9ZM       0.374800
      6 C22         -2.6470     1.2410     3.0800 cc         1 9ZM      -0.215600
      7 C23         -2.3720     0.7330     1.8420 cd         1 9ZM       0.370800
      8 C11          5.1700    -0.7820    -1.2220 ca         1 9ZM      -0.108000
      9 C27         -4.4010    -2.2770     0.8370 ca         1 9ZM      -0.159000
     10 CL1          6.6100    -0.3300    -3.4450 cl         1 9ZM      -0.089400
     11 N2           1.6270     1.7770     1.5780 ns         1 9ZM      -0.551900
     12 C3           2.3280     0.6650     1.8760 c          1 9ZM       0.675300
     13 C4           3.0840     0.1100     0.7260 ce         1 9ZM      -0.211200
     14 C6           4.6450    -1.5720    -0.2000 ca         1 9ZM      -0.022800
     15 C7           4.9540    -2.9350    -0.2120 ca         1 9ZM       0.008800
     16 C8           5.7550    -3.4930    -1.1960 ca         1 9ZM      -0.115000
     17 C9           6.2770    -2.6950    -2.1980 ca         1 9ZM      -0.107000
     18 C10          5.9690    -1.3430    -2.2020 ca         1 9ZM       0.034400
     19 N12          4.4310    -3.7880     0.7880 na         1 9ZM      -0.001500
     20 N15          2.9910    -4.7720     1.9330 nc         1 9ZM      -0.035000
     21 N16          3.1230    -3.9140     1.0050 nd         1 9ZM      -0.181800
     22 O17          2.3600     0.1700     2.9930 o          1 9ZM      -0.593100
     23 N21         -1.5270     1.9310     3.4430 na         1 9ZM      -0.287900
     24 N24         -1.1100     1.1030     1.4570 nd         1 9ZM      -0.658000
     25 C25         -3.2150    -0.1500     1.0290 ca         1 9ZM      -0.107500
     26 C26         -3.6820    -1.3460     1.5690 ca         1 9ZM      -0.082000
     27 C28         -4.6660    -2.0260    -0.5080 ca         1 9ZM       0.102600
     28 C29         -4.2400    -0.8160    -1.0560 ca         1 9ZM      -0.224000
     29 C30         -3.5360     0.1130    -0.3060 ca         1 9ZM       0.104600
     30 N31         -5.3600    -2.8840    -1.3590 ns         1 9ZM      -0.465100
     31 C32         -5.7860    -4.1510    -1.1130 c          1 9ZM       0.761100
     32 O33         -5.6500    -4.7640    -0.0790 o          1 9ZM      -0.567000
     33 O34         -6.3880    -4.6330    -2.1990 os         1 9ZM      -0.437900
     34 C35         -6.8890    -5.9650    -2.1240 c3         1 9ZM       0.148700
     35 C36          0.3580     4.3400     0.9000 ca         1 9ZM       0.406600
     36 N37         -0.9390     4.4670     0.6300 nb         1 9ZM      -0.633000
     37 C38         -1.3400     4.7750    -0.5960 ca         1 9ZM       0.398600
     38 C39         -0.4040     4.9600    -1.6090 ca         1 9ZM       0.012600
     39 C40          0.9450     4.8510    -1.3640 ca         1 9ZM      -0.132000
     40 C41          1.3350     4.5370    -0.0720 ca         1 9ZM      -0.230300
     41 C42         -2.8090     4.9140    -0.8650 c3         1 9ZM      -0.114700
     42 C43         -3.4090     3.6640    -1.5120 c3         1 9ZM      -0.155400
     43 C44         -3.6420     2.5350    -0.5300 c          1 9ZM       0.676100
     44 N45         -3.1810     1.3240    -0.9340 ns         1 9ZM      -0.475100
     45 O46         -4.2480     2.7000     0.5100 o          1 9ZM      -0.572100
     46 F47         -0.8290     5.2650    -2.8440 f          1 9ZM      -0.136900
     47 H54          6.1410    -4.7180     1.6770 h5         1 9ZM       0.077100
     48 H55          1.1370     2.2470     3.5160 h1         1 9ZM       0.084700
     49 H57          0.0430     4.3930     3.0070 hc         1 9ZM       0.067200
     50 H56          1.7340     4.3200     2.5350 hc         1 9ZM       0.067200
     51 H59         -3.5200     1.1860     3.7080 h4         1 9ZM       0.182000
     52 H53          4.9770     0.2820    -1.2320 ha         1 9ZM       0.156000
     53 H48          1.5360     2.0330     0.6070 hn         1 9ZM       0.322500
     54 H49          2.9970     0.6120    -0.2310 ha         1 9ZM       0.129000
     55 H51          5.9640    -4.5540    -1.1900 ha         1 9ZM       0.153000
     56 H52          6.9050    -3.1260    -2.9650 ha         1 9ZM       0.159000
     57 H58         -1.3950     2.4160     4.3160 hn         1 9ZM       0.300700
     58 H60         -3.4480    -1.5730     2.6020 ha         1 9ZM       0.139000
     59 H62         -4.4770    -0.5830    -2.0880 ha         1 9ZM       0.125000
     60 H63         -5.5320    -2.5320    -2.2890 hn         1 9ZM       0.329500
     61 H64         -7.6450    -6.0680    -1.3470 h1         1 9ZM       0.050367
     62 H65         -7.3410    -6.1630    -3.0910 h1         1 9ZM       0.050367
     63 H66         -6.0890    -6.6840    -1.9480 h1         1 9ZM       0.050367
     64 H67          1.6690     5.0130    -2.1510 ha         1 9ZM       0.155000
     65 H68          2.3850     4.4570     0.1760 ha         1 9ZM       0.146000
     66 H70         -3.3180     5.1250     0.0750 hc         1 9ZM       0.076200
     67 H69         -2.9900     5.7640    -1.5240 hc         1 9ZM       0.076200
     68 H71         -4.3930     3.9200    -1.9160 hc         1 9ZM       0.060700
     69 H72         -2.8070     3.3440    -2.3640 hc         1 9ZM       0.060700
     70 H73         -2.8070     1.2570    -1.8680 hn         1 9ZM       0.313500
     71 C5           3.8350    -0.9820     0.8670 cf         1 9ZM      -0.047200
     72 H61         -4.7260    -3.1870     1.3140 ha         1 9ZM       0.168000
     73 H50          3.8630    -1.4660     1.8370 ha         1 9ZM       0.164000
@<TRIPOS>BOND
     1     1     2 2   
     2     1    20 1   
     3     2    19 1   
     4     2    47 1   
     5     3     4 1   
     6     3     5 1   
     7     3    11 1   
     8     3    48 1   
     9     4    35 1   
    10     4    49 1   
    11     4    50 1   
    12     5    23 1   
    13     5    24 2   
    14     6     7 2   
    15     6    23 1   
    16     6    51 1   
    17     7    24 1   
    18     7    25 1   
    19     8    14 ar  
    20     8    18 ar  
    21     8    52 1   
    22     9    26 ar  
    23     9    27 ar  
    24     9    72 1   
    25    10    18 1   
    26    11    12 1   
    27    11    53 1   
    28    12    13 1   
    29    12    22 2   
    30    13    54 1   
    31    13    71 2   
    32    14    15 ar  
    33    14    71 1   
    34    15    16 ar  
    35    15    19 1   
    36    16    17 ar  
    37    16    55 1   
    38    17    18 ar  
    39    17    56 1   
    40    19    21 1   
    41    20    21 2   
    42    23    57 1   
    43    25    26 ar  
    44    25    29 ar  
    45    26    58 1   
    46    27    28 ar  
    47    27    30 1   
    48    28    29 ar  
    49    28    59 1   
    50    29    44 1   
    51    30    31 1   
    52    30    60 1   
    53    31    32 2   
    54    31    33 1   
    55    33    34 1   
    56    34    61 1   
    57    34    62 1   
    58    34    63 1   
    59    35    36 ar  
    60    35    40 ar  
    61    36    37 ar  
    62    37    38 ar  
    63    37    41 1   
    64    38    39 ar  
    65    38    46 1   
    66    39    40 ar  
    67    39    64 1   
    68    40    65 1   
    69    41    42 1   
    70    41    66 1   
    71    41    67 1   
    72    42    43 1   
    73    42    68 1   
    74    42    69 1   
    75    43    44 1   
    76    43    45 2   
    77    44    70 1   
    78    71    73 1   
@<TRIPOS>SUBSTRUCTURE
     1 9ZM         1 TEMP              0 ****  ****    0 ROOT
