@<TRIPOS>MOLECULE
9ZO
   62    65     1     0     0
SMALL
No Charge or Current Charge


@<TRIPOS>ATOM
      1 C10          3.5100    -2.1720    83.4900 ca         1 9ZO      -0.176600
      2 C13          0.9690    -1.3980    84.4670 ca         1 9ZO       0.138600
      3 C15          2.3370    -2.5830    82.7990 ca         1 9ZO       0.083700
      4 C26         -3.4180    -3.6600    83.0520 c3         1 9ZO      -0.095400
      5 C28         -4.6670    -4.4480    80.9130 c3         1 9ZO      -0.035100
      6 C1           6.4380    -5.7740    81.4060 c6         1 9ZO      -0.074200
      7 C2           5.9480    -6.8350    82.4160 c6         1 9ZO      -0.064400
      8 C3           4.5200    -6.4930    82.8890 c6         1 9ZO      -0.182400
      9 C4           4.4670    -5.0920    83.5030 c          1 9ZO       0.609300
     10 C5           5.2050    -4.0220    82.7830 ce         1 9ZO      -0.494400
     11 C6           6.1190    -4.3510    81.8430 c2         1 9ZO       0.286900
     12 C9           4.9030    -2.6010    83.1040 c          1 9ZO       0.640900
     13 C11          3.4040    -1.3010    84.5810 ca         1 9ZO      -0.005000
     14 C12          2.1530    -0.8950    85.0430 ca         1 9ZO      -0.186000
     15 C14          1.0510    -2.2150    83.3180 ca         1 9ZO      -0.214600
     16 C16         -0.2510    -2.6640    82.6840 c          1 9ZO       0.595600
     17 C19         -1.5050    -1.2100    84.2390 c          1 9ZO       0.621000
     18 C23          2.4830    -3.3230    81.4590 c3         1 9ZO      -0.056800
     19 C27         -4.7730    -4.0030    82.3890 c3         1 9ZO      -0.069400
     20 C29         -6.0170    -4.8640    80.3450 ca         1 9ZO      -0.077300
     21 C30         -6.4170    -6.2150    80.3770 ca         1 9ZO      -0.108000
     22 C31         -7.6660    -6.5970    79.8570 ca         1 9ZO      -0.109500
     23 C32         -8.5230    -5.6310    79.3030 ca         1 9ZO      -0.113000
     24 C33         -8.1310    -4.2820    79.2710 ca         1 9ZO      -0.109500
     25 C34         -6.8820    -3.9000    79.7910 ca         1 9ZO      -0.108000
     26 N17         -0.3110    -0.9350    84.9290 n          1 9ZO      -0.301000
     27 N18         -1.4390    -2.0870    83.1530 n          1 9ZO      -0.372400
     28 O7           6.8320    -3.4370    81.1790 oh         1 9ZO      -0.538100
     29 O20         -0.2960    -3.5290    81.8200 o          1 9ZO      -0.531000
     30 O21         -2.5710    -0.7240    84.5970 o          1 9ZO      -0.559000
     31 O24          5.7640    -1.7520    82.9030 o          1 9ZO      -0.600100
     32 H1          -1.4230    -0.2340    86.6360 h1         1 9ZO       0.058033
     33 H2           0.2420    -0.7140    86.9740 h1         1 9ZO       0.058033
     34 H3          -0.0840     0.8190    86.1090 h1         1 9ZO       0.058033
     35 H4          -3.5910    -3.4780    84.1200 hc         1 9ZO       0.052200
     36 H5          -2.7520    -4.5290    82.9870 hc         1 9ZO       0.052200
     37 H6          -3.9540    -5.2790    80.8370 hc         1 9ZO       0.049700
     38 H7          -4.2510    -3.6320    80.3100 hc         1 9ZO       0.049700
     39 H8           5.9660    -5.9510    80.4310 hc         1 9ZO       0.080200
     40 H9           7.5200    -5.8870    81.2490 hc         1 9ZO       0.080200
     41 H10          5.9750    -7.8350    81.9600 hc         1 9ZO       0.056700
     42 H11          6.6240    -6.8640    83.2820 hc         1 9ZO       0.056700
     43 H12          4.1050    -7.2350    83.5840 hc         1 9ZO       0.072200
     44 H13          3.8940    -6.4640    81.9880 hc         1 9ZO       0.072200
     45 H16          4.3000    -0.9400    85.0820 ha         1 9ZO       0.123000
     46 H17          2.1290    -0.2000    85.8770 ha         1 9ZO       0.127000
     47 H18          2.2610    -4.3910    81.5650 hc         1 9ZO       0.058367
     48 H19          1.8140    -2.9030    80.7000 hc         1 9ZO       0.058367
     49 H20          3.4790    -3.2260    81.0180 hc         1 9ZO       0.058367
     50 H21         -3.3960    -1.5680    82.4780 h1         1 9ZO       0.071200
     51 H22         -2.5040    -2.6030    81.3850 h1         1 9ZO       0.071200
     52 H23         -5.4420    -3.1360    82.4600 hc         1 9ZO       0.045700
     53 H24         -5.2450    -4.8090    82.9640 hc         1 9ZO       0.045700
     54 H25         -5.7610    -6.9690    80.8070 ha         1 9ZO       0.110000
     55 H26         -7.9690    -7.6410    79.8840 ha         1 9ZO       0.110000
     56 H27         -9.4900    -5.9270    78.9010 ha         1 9ZO       0.111000
     57 H28         -8.7940    -3.5330    78.8440 ha         1 9ZO       0.110000
     58 H29         -6.5860    -2.8530    79.7640 ha         1 9ZO       0.110000
     59 H30          6.6280    -2.5840    81.6410 ho         1 9ZO       0.548000
     60 C22         -0.4030    -0.2230    86.2340 c3         1 9ZO       0.083300
     61 C25         -2.7110    -2.4250    82.4480 c3         1 9ZO       0.099000
     62 O8           3.8510    -4.8850    84.5370 o          1 9ZO      -0.532100
@<TRIPOS>BOND
     1     1     3 ar  
     2     1    12 1   
     3     1    13 ar  
     4     2    14 ar  
     5     2    15 ar  
     6     2    26 1   
     7     3    15 ar  
     8     3    18 1   
     9     4    19 1   
    10     4    35 1   
    11     4    36 1   
    12     4    61 1   
    13     5    19 1   
    14     5    20 1   
    15     5    37 1   
    16     5    38 1   
    17     6     7 1   
    18     6    11 1   
    19     6    39 1   
    20     6    40 1   
    21     7     8 1   
    22     7    41 1   
    23     7    42 1   
    24     8     9 1   
    25     8    43 1   
    26     8    44 1   
    27     9    10 1   
    28     9    62 2   
    29    10    11 2   
    30    10    12 1   
    31    11    28 1   
    32    12    31 2   
    33    13    14 ar  
    34    13    45 1   
    35    14    46 1   
    36    15    16 1   
    37    16    27 1   
    38    16    29 2   
    39    17    26 1   
    40    17    27 1   
    41    17    30 2   
    42    18    47 1   
    43    18    48 1   
    44    18    49 1   
    45    19    52 1   
    46    19    53 1   
    47    20    21 ar  
    48    20    25 ar  
    49    21    22 ar  
    50    21    54 1   
    51    22    23 ar  
    52    22    55 1   
    53    23    24 ar  
    54    23    56 1   
    55    24    25 ar  
    56    24    57 1   
    57    25    58 1   
    58    26    60 1   
    59    27    61 1   
    60    28    59 1   
    61    32    60 1   
    62    33    60 1   
    63    34    60 1   
    64    50    61 1   
    65    51    61 1   
@<TRIPOS>SUBSTRUCTURE
     1 9ZO         1 TEMP              0 ****  ****    0 ROOT
