@<TRIPOS>MOLECULE
9ZO
   62    65     1     0     0
SMALL
bcc


@<TRIPOS>ATOM
      1 C10          3.3030    -2.3620    83.2630 ca         1 9ZO      -0.176600
      2 C13          0.8640    -1.5210    84.3160 ca         1 9ZO       0.138600
      3 C15          2.1380    -2.6480    82.5560 ca         1 9ZO       0.083700
      4 C26         -3.4100    -3.6030    82.9810 c3         1 9ZO      -0.095400
      5 C28         -4.7320    -4.3110    80.9060 c3         1 9ZO      -0.035100
      6 C1           6.9730    -5.6350    81.8630 c6         1 9ZO      -0.074200
      7 C2           6.3840    -6.6740    82.7990 c6         1 9ZO      -0.064400
      8 C3           4.8670    -6.5960    82.7750 c6         1 9ZO      -0.182400
      9 C4           4.3570    -5.2230    83.1380 c          1 9ZO       0.609300
     10 C5           5.1410    -4.0760    82.6610 ce         1 9ZO      -0.494400
     11 C6           6.3970    -4.2810    82.0940 c2         1 9ZO       0.286900
     12 C9           4.6670    -2.7100    82.7670 c          1 9ZO       0.640900
     13 C11          3.2500    -1.6420    84.4510 ca         1 9ZO      -0.023000
     14 C12          2.0520    -1.2300    84.9860 ca         1 9ZO      -0.204000
     15 C14          0.9050    -2.2290    83.1030 ca         1 9ZO      -0.214600
     16 C16         -0.3700    -2.5420    82.4470 c          1 9ZO       0.738100
     17 C19         -1.5450    -1.3280    84.2340 c          1 9ZO       0.830500
     18 C23          2.2420    -3.3580    81.2350 c3         1 9ZO      -0.056800
     19 C27         -4.7770    -3.9240    82.3870 c3         1 9ZO      -0.069400
     20 C29         -6.0820    -4.7390    80.4030 ca         1 9ZO      -0.077300
     21 C30         -6.5040    -6.0610    80.5340 ca         1 9ZO      -0.126000
     22 C31         -7.7680    -6.4520    80.1140 ca         1 9ZO      -0.127500
     23 C32         -8.6360    -5.5230    79.5540 ca         1 9ZO      -0.131000
     24 C33         -8.2270    -4.2020    79.4180 ca         1 9ZO      -0.127500
     25 C34         -6.9620    -3.8170    79.8400 ca         1 9ZO      -0.126000
     26 N17         -0.3420    -1.1060    84.8500 n          1 9ZO      -0.368000
     27 N18         -1.5080    -2.0160    83.0370 n          1 9ZO      -0.506400
     28 O7           7.1470    -3.2980    81.7060 oh         1 9ZO      -0.499100
     29 O20         -0.4780    -3.2210    81.4450 o          1 9ZO      -0.606500
     30 O21         -2.5980    -0.9480    84.7070 o          1 9ZO      -0.634500
     31 O24          5.4010    -1.7580    82.4610 o          1 9ZO      -0.600100
     32 H1          -1.3710    -0.1830    86.4070 h1         1 9ZO       0.058033
     33 H2           0.1000    -1.0200    86.9010 h1         1 9ZO       0.058033
     34 H3           0.2000     0.5350    86.0500 h1         1 9ZO       0.058033
     35 H4          -3.5130    -3.4990    84.0640 hc         1 9ZO       0.052200
     36 H5          -2.7310    -4.4430    82.8090 hc         1 9ZO       0.052200
     37 H6          -4.0110    -5.1230    80.7730 hc         1 9ZO       0.049700
     38 H7          -4.3720    -3.4710    80.3080 hc         1 9ZO       0.049700
     39 H8           6.7560    -5.9020    80.8210 hc         1 9ZO       0.080200
     40 H9           8.0590    -5.5800    81.9490 hc         1 9ZO       0.080200
     41 H10          6.7160    -7.6680    82.5010 hc         1 9ZO       0.056700
     42 H11          6.7500    -6.5070    83.8140 hc         1 9ZO       0.056700
     43 H12          4.4160    -7.3270    83.4470 hc         1 9ZO       0.072200
     44 H13          4.5030    -6.8200    81.7650 hc         1 9ZO       0.072200
     45 H16          4.1640    -1.4070    84.9820 ha         1 9ZO       0.141000
     46 H17          2.0590    -0.6830    85.9160 ha         1 9ZO       0.145000
     47 H18          1.7980    -4.3500    81.2750 hc         1 9ZO       0.058367
     48 H19          1.7360    -2.8090    80.4450 hc         1 9ZO       0.058367
     49 H20          3.2790    -3.4740    80.9310 hc         1 9ZO       0.058367
     50 H21         -3.4690    -1.4830    82.5840 h1         1 9ZO       0.071200
     51 H22         -2.6400    -2.4000    81.3470 h1         1 9ZO       0.071200
     52 H23         -5.4510    -3.0720    82.5210 hc         1 9ZO       0.045700
     53 H24         -5.2140    -4.7500    82.9530 hc         1 9ZO       0.045700
     54 H25         -5.8320    -6.7930    80.9680 ha         1 9ZO       0.128000
     55 H26         -8.0750    -7.4850    80.2210 ha         1 9ZO       0.128000
     56 H27         -9.6210    -5.8260    79.2240 ha         1 9ZO       0.129000
     57 H28         -8.8950    -3.4710    78.9800 ha         1 9ZO       0.128000
     58 H29         -6.6500    -2.7840    79.7270 ha         1 9ZO       0.128000
     59 H30          6.6440    -2.4450    81.9170 ho         1 9ZO       0.509000
     60 C22         -0.3500    -0.4030    86.1250 c3         1 9ZO       0.083300
     61 C25         -2.8000    -2.3250    82.4180 c3         1 9ZO       0.099000
     62 O8           3.3350    -5.0900    83.7840 o          1 9ZO      -0.532100
@<TRIPOS>BOND
     1     1     3 ar  
     2     1    12 1   
     3     1    13 ar  
     4     2    14 ar  
     5     2    15 ar  
     6     2    26 1   
     7     3    15 ar  
     8     3    18 1   
     9     4    19 1   
    10     4    35 1   
    11     4    36 1   
    12     4    61 1   
    13     5    19 1   
    14     5    20 1   
    15     5    37 1   
    16     5    38 1   
    17     6     7 1   
    18     6    11 1   
    19     6    39 1   
    20     6    40 1   
    21     7     8 1   
    22     7    41 1   
    23     7    42 1   
    24     8     9 1   
    25     8    43 1   
    26     8    44 1   
    27     9    10 1   
    28     9    62 2   
    29    10    11 2   
    30    10    12 1   
    31    11    28 1   
    32    12    31 2   
    33    13    14 ar  
    34    13    45 1   
    35    14    46 1   
    36    15    16 1   
    37    16    27 1   
    38    16    29 2   
    39    17    26 1   
    40    17    27 1   
    41    17    30 2   
    42    18    47 1   
    43    18    48 1   
    44    18    49 1   
    45    19    52 1   
    46    19    53 1   
    47    20    21 ar  
    48    20    25 ar  
    49    21    22 ar  
    50    21    54 1   
    51    22    23 ar  
    52    22    55 1   
    53    23    24 ar  
    54    23    56 1   
    55    24    25 ar  
    56    24    57 1   
    57    25    58 1   
    58    26    60 1   
    59    27    61 1   
    60    28    59 1   
    61    32    60 1   
    62    33    60 1   
    63    34    60 1   
    64    50    61 1   
    65    51    61 1   
@<TRIPOS>SUBSTRUCTURE
     1 9ZO         1 TEMP              0 ****  ****    0 ROOT
