@<TRIPOS>MOLECULE
9ZP
   67    72     1     0     0
SMALL
bcc


@<TRIPOS>ATOM
      1 N2          -7.0290    -1.2500    -0.3620 ns         1 9ZP      -0.550900
      2 C3          -8.4320    -1.4620    -0.4880 cx         1 9ZP       0.054700
      3 C4          -9.0920    -2.3540     0.5110 cx         1 9ZP      -0.137900
      4 C5          -9.3600    -0.8800     0.5320 cx         1 9ZP      -0.137900
      5 C6          -6.4510    -0.0840    -0.7080 c          1 9ZP       0.685700
      6 O7          -7.1100     0.8730    -1.0960 o          1 9ZP      -0.605100
      7 C8          -4.9670    -0.0070    -0.5910 ca         1 9ZP      -0.153600
      8 C9          -4.3860     1.2650    -0.5830 ca         1 9ZP      -0.133000
      9 C10         -3.0200     1.4190    -0.4820 ca         1 9ZP       0.067100
     10 O11         -2.3870     2.6100    -0.4520 os         1 9ZP      -0.341900
     11 C12         -3.1520     3.7930    -0.5680 c3         1 9ZP       0.130700
     12 C13         -2.1700     0.2870    -0.4060 ca         1 9ZP       0.188600
     13 C14         -2.7590    -0.9750    -0.4320 ca         1 9ZP      -0.155000
     14 C15         -4.1370    -1.1160    -0.5220 ca         1 9ZP      -0.104000
     15 N16         -0.8180     0.5430    -0.3250 nu         1 9ZP      -0.729300
     16 C18          0.2570    -0.2990    -0.1860 ca         1 9ZP       0.930900
     17 N19          1.4250     0.3420    -0.1560 nb         1 9ZP      -0.834000
     18 C20          2.5340    -0.3670    -0.0220 ca         1 9ZP       0.737200
     19 C21          2.4470    -1.7810     0.1410 ca         1 9ZP      -0.155000
     20 C22          1.1910    -2.3270     0.0900 ca         1 9ZP       0.450200
     21 N23          0.0810    -1.6020    -0.0960 nb         1 9ZP      -0.769000
     22 N24          3.6150    -2.4710     0.3810 nh         1 9ZP      -0.662000
     23 C25          3.9220    -3.8030     0.3460 c2         1 9ZP       0.570100
     24 N26          5.1550    -4.0440     0.5520 n2         1 9ZP      -0.495400
     25 N27          5.7990    -2.7990     0.6440 nu         1 9ZP      -0.517300
     26 C28          4.8000    -1.7500     0.7890 c5         1 9ZP       0.425700
     27 C29          4.9650    -0.5300    -0.1250 c6         1 9ZP       0.235500
     28 C31          5.3070    -0.8940    -1.5750 c3         1 9ZP      -0.080400
     29 C32          6.8040    -0.9760    -1.8370 c3         1 9ZP      -0.087100
     30 N33          3.7370     0.2520    -0.0180 nh         1 9ZP      -0.781300
     31 C34          3.8350     1.7020     0.0440 c5         1 9ZP       0.227500
     32 C35          4.3720     2.2320     1.3790 c5         1 9ZP      -0.094400
     33 C36          4.7950     3.6800     1.0740 c5         1 9ZP      -0.079400
     34 C37          4.8380     3.7970    -0.4690 c5         1 9ZP      -0.079400
     35 C38          4.7450     2.3640    -0.9900 c5         1 9ZP      -0.094400
     36 H2          -6.4660    -2.0080    -0.0130 hn         1 9ZP       0.319500
     37 H3          -8.7960    -1.5140    -1.5090 h1         1 9ZP       0.089700
     38 H41C        -9.8670    -3.0200     0.1540 hc         1 9ZP       0.076700
     39 H42C        -8.4790    -2.7660     1.3030 hc         1 9ZP       0.076700
     40 H51C        -8.9180    -0.3020     1.3330 hc         1 9ZP       0.076700
     41 H52C       -10.3230    -0.5210     0.1920 hc         1 9ZP       0.076700
     42 H9          -5.0310     2.1300    -0.6470 ha         1 9ZP       0.159000
     43 H15         -4.5320    -2.1230    -0.5620 ha         1 9ZP       0.127000
     44 H121        -3.7020     3.8280    -1.5110 h1         1 9ZP       0.043700
     45 H122        -3.8590     3.9010     0.2590 h1         1 9ZP       0.043700
     46 H123        -2.4480     4.6200    -0.5380 h1         1 9ZP       0.043700
     47 H14         -2.1330    -1.8500    -0.3860 ha         1 9ZP       0.173000
     48 H16         -0.5540     1.5160    -0.3620 hn         1 9ZP       0.471800
     49 H22          1.0500    -3.3960     0.2070 h4         1 9ZP       0.021100
     50 H25          3.1850    -4.5670     0.1450 h5         1 9ZP       0.064800
     51 H28          4.7070    -1.3870     1.8270 h2         1 9ZP       0.043700
     52 H27          6.4720    -2.8130     1.3950 hn         1 9ZP       0.397800
     53 H29          5.7690     0.0830     0.2910 h1         1 9ZP       0.071700
     54 H311         4.8240    -1.8370    -1.8470 hc         1 9ZP       0.053200
     55 H312         4.8720    -0.1370    -2.2310 hc         1 9ZP       0.053200
     56 H321         7.2900    -0.0210    -1.6270 hc         1 9ZP       0.038033
     57 H322         7.2750    -1.7350    -1.2150 hc         1 9ZP       0.038033
     58 H323         7.0020    -1.2240    -2.8800 hc         1 9ZP       0.038033
     59 H34          2.8270     2.0870    -0.1060 h1         1 9ZP       0.096700
     60 H351         3.6280     2.1600     2.1730 hc         1 9ZP       0.049200
     61 H352         5.2380     1.6440     1.6940 hc         1 9ZP       0.049200
     62 H381         5.7360     1.9010    -0.9880 hc         1 9ZP       0.049200
     63 H382         4.3520     2.3010    -2.0060 hc         1 9ZP       0.049200
     64 H361         4.0890     4.3960     1.4950 hc         1 9ZP       0.045450
     65 H362         5.7660     3.9030     1.5150 hc         1 9ZP       0.045450
     66 H371         3.9830     4.3740    -0.8260 hc         1 9ZP       0.045450
     67 H372         5.7340     4.3060    -0.8240 hc         1 9ZP       0.045450
@<TRIPOS>BOND
     1     1     2 1   
     2     1     5 1   
     3     1    36 1   
     4     2     3 1   
     5     2     4 1   
     6     2    37 1   
     7     3     4 1   
     8     3    38 1   
     9     3    39 1   
    10     4    40 1   
    11     4    41 1   
    12     5     6 2   
    13     5     7 1   
    14     7     8 ar  
    15     7    14 ar  
    16     8     9 ar  
    17     8    42 1   
    18     9    10 1   
    19     9    12 ar  
    20    10    11 1   
    21    11    44 1   
    22    11    45 1   
    23    11    46 1   
    24    12    13 ar  
    25    12    15 1   
    26    13    14 ar  
    27    13    47 1   
    28    14    43 1   
    29    15    16 1   
    30    15    48 1   
    31    16    17 ar  
    32    16    21 ar  
    33    17    18 ar  
    34    18    19 ar  
    35    18    30 1   
    36    19    20 ar  
    37    19    22 1   
    38    20    21 ar  
    39    20    49 1   
    40    22    23 1   
    41    22    26 1   
    42    23    24 2   
    43    23    50 1   
    44    24    25 1   
    45    25    26 1   
    46    25    52 1   
    47    26    27 1   
    48    26    51 1   
    49    27    28 1   
    50    27    30 1   
    51    27    53 1   
    52    28    29 1   
    53    28    54 1   
    54    28    55 1   
    55    29    56 1   
    56    29    57 1   
    57    29    58 1   
    58    30    31 1   
    59    31    32 1   
    60    31    35 1   
    61    31    59 1   
    62    32    33 1   
    63    32    60 1   
    64    32    61 1   
    65    33    34 1   
    66    33    64 1   
    67    33    65 1   
    68    34    35 1   
    69    34    66 1   
    70    34    67 1   
    71    35    62 1   
    72    35    63 1   
@<TRIPOS>SUBSTRUCTURE
     1 9ZP         1 TEMP              0 ****  ****    0 ROOT
