@<TRIPOS>MOLECULE
9ZP
   67    72     1     0     0
SMALL
No Charge or Current Charge


@<TRIPOS>ATOM
      1 N2          -7.1210    -1.1570    -0.6540 ns         1 9ZP      -0.483900
      2 C3          -8.5270    -1.4510    -0.7180 cx         1 9ZP       0.054700
      3 C4          -8.9490    -2.8890    -0.5410 cx         1 9ZP      -0.137900
      4 C5          -9.2090    -1.8850     0.5560 cx         1 9ZP      -0.137900
      5 C6          -6.5910     0.1130    -0.5720 c          1 9ZP       0.618700
      6 O7          -7.3140     1.1010    -0.5520 o          1 9ZP      -0.605100
      7 C8          -5.0770     0.2180    -0.5080 ca         1 9ZP      -0.153600
      8 C9          -4.4700     1.4930    -0.4240 ca         1 9ZP      -0.115000
      9 C10         -3.0640     1.6300    -0.3610 ca         1 9ZP       0.067100
     10 O11         -2.4530     2.8770    -0.2900 os         1 9ZP      -0.365100
     11 C12         -3.2000     4.1080    -0.2700 c3         1 9ZP       0.153900
     12 C13         -2.2410     0.4750    -0.3710 ca         1 9ZP       0.327000
     13 C14         -2.8440    -0.7920    -0.4760 ca         1 9ZP      -0.137000
     14 C15         -4.2420    -0.9240    -0.5380 ca         1 9ZP      -0.086000
     15 N16         -0.8460     0.6460    -0.3170 nu         1 9ZP      -0.922900
     16 C18          0.2420    -0.1350     0.0350 ca         1 9ZP       0.404900
     17 N19          1.4230     0.4650    -0.1520 nb         1 9ZP      -0.308000
     18 C20          2.5270    -0.2360     0.1810 ca         1 9ZP       0.408900
     19 C21          2.4280    -1.5610     0.7180 ca         1 9ZP       0.114000
     20 C22          1.1240    -2.0770     0.8720 ca         1 9ZP       0.121900
     21 N23          0.0320    -1.3660     0.5320 nb         1 9ZP      -0.243000
     22 N24          3.5920    -2.2930     1.0990 nh         1 9ZP      -0.800400
     23 C25          3.7330    -3.6610     0.9860 c2         1 9ZP       0.570100
     24 N26          4.9660    -3.9920     0.8870 n2         1 9ZP      -0.495400
     25 N27          5.7540    -2.8830     0.8870 nu         1 9ZP      -0.572500
     26 C28          4.9290    -1.6510     0.9890 c5         1 9ZP       0.425700
     27 C29          4.9820    -0.5350    -0.1430 c6         1 9ZP       0.235500
     28 C31          5.0310    -1.0870    -1.6090 c3         1 9ZP      -0.080400
     29 C32          6.4060    -1.5970    -2.0940 c3         1 9ZP      -0.087100
     30 N33          3.7940     0.4020    -0.0450 nh         1 9ZP      -0.781300
     31 C34          3.9130     1.9030    -0.0490 c5         1 9ZP       0.227500
     32 C35          4.6790     2.3390     1.2260 c5         1 9ZP      -0.094400
     33 C36          5.1330     3.7870     0.8550 c5         1 9ZP      -0.079400
     34 C37          5.0860     3.8500    -0.7100 c5         1 9ZP      -0.079400
     35 C38          4.9030     2.3720    -1.1460 c5         1 9ZP      -0.094400
     36 H2          -6.4580    -1.9200    -0.6700 hn         1 9ZP       0.319500
     37 H3          -9.0890    -0.8340    -1.4220 h1         1 9ZP       0.089700
     38 H41C        -9.7990    -3.2390    -1.1200 hc         1 9ZP       0.076700
     39 H42C        -8.1760    -3.6350    -0.3710 hc         1 9ZP       0.076700
     40 H51C        -8.6080    -1.9510     1.4600 hc         1 9ZP       0.076700
     41 H52C       -10.2340    -1.5590     0.7130 hc         1 9ZP       0.076700
     42 H9          -5.1070     2.3730    -0.4090 ha         1 9ZP       0.141000
     43 H15         -4.6560    -1.9250    -0.6170 ha         1 9ZP       0.109000
     44 H121        -3.8000     4.2160    -1.1830 h1         1 9ZP       0.043700
     45 H122        -3.8680     4.1460     0.6000 h1         1 9ZP       0.043700
     46 H123        -2.5170     4.9650    -0.2110 h1         1 9ZP       0.043700
     47 H14         -2.2380    -1.6890    -0.5280 ha         1 9ZP       0.155000
     48 H16         -0.5860     1.6220    -0.4590 hn         1 9ZP       0.527000
     49 H22          0.9460    -3.0690     1.2840 h4         1 9ZP       0.021100
     50 H25          2.8560    -4.3160     0.9750 h5         1 9ZP       0.064800
     51 H28          5.1520    -1.1590     1.9450 h2         1 9ZP       0.043700
     52 H27          6.7800    -2.8670     0.8560 hn         1 9ZP       0.453000
     53 H29          5.9150     0.0200     0.0190 h1         1 9ZP       0.071700
     54 H311         4.2890    -1.8850    -1.7340 hc         1 9ZP       0.053200
     55 H312         4.7290    -0.2940    -2.3040 hc         1 9ZP       0.053200
     56 H321         7.1740    -0.8260    -1.9600 hc         1 9ZP       0.038033
     57 H322         6.7190    -2.4980    -1.5570 hc         1 9ZP       0.038033
     58 H323         6.3600    -1.8470    -3.1610 hc         1 9ZP       0.038033
     59 H34          2.9510     2.4300    -0.1400 h1         1 9ZP       0.096700
     60 H351         4.0420     2.3160     2.1170 hc         1 9ZP       0.049200
     61 H352         5.5500     1.7090     1.4360 hc         1 9ZP       0.049200
     62 H381         5.8650     1.8490    -1.1360 hc         1 9ZP       0.049200
     63 H382         4.4850     2.2820    -2.1550 hc         1 9ZP       0.049200
     64 H361         4.4670     4.5400     1.2940 hc         1 9ZP       0.045450
     65 H362         6.1380     3.9940     1.2400 hc         1 9ZP       0.045450
     66 H371         4.2420     4.4640    -1.0480 hc         1 9ZP       0.045450
     67 H372         5.9920     4.2970    -1.1360 hc         1 9ZP       0.045450
@<TRIPOS>BOND
     1     1     2 1   
     2     1     5 1   
     3     1    36 1   
     4     2     3 1   
     5     2     4 1   
     6     2    37 1   
     7     3     4 1   
     8     3    38 1   
     9     3    39 1   
    10     4    40 1   
    11     4    41 1   
    12     5     6 2   
    13     5     7 1   
    14     7     8 ar  
    15     7    14 ar  
    16     8     9 ar  
    17     8    42 1   
    18     9    10 1   
    19     9    12 ar  
    20    10    11 1   
    21    11    44 1   
    22    11    45 1   
    23    11    46 1   
    24    12    13 ar  
    25    12    15 1   
    26    13    14 ar  
    27    13    47 1   
    28    14    43 1   
    29    15    16 1   
    30    15    48 1   
    31    16    17 ar  
    32    16    21 ar  
    33    17    18 ar  
    34    18    19 ar  
    35    18    30 1   
    36    19    20 ar  
    37    19    22 1   
    38    20    21 ar  
    39    20    49 1   
    40    22    23 1   
    41    22    26 1   
    42    23    24 2   
    43    23    50 1   
    44    24    25 1   
    45    25    26 1   
    46    25    52 1   
    47    26    27 1   
    48    26    51 1   
    49    27    28 1   
    50    27    30 1   
    51    27    53 1   
    52    28    29 1   
    53    28    54 1   
    54    28    55 1   
    55    29    56 1   
    56    29    57 1   
    57    29    58 1   
    58    30    31 1   
    59    31    32 1   
    60    31    35 1   
    61    31    59 1   
    62    32    33 1   
    63    32    60 1   
    64    32    61 1   
    65    33    34 1   
    66    33    64 1   
    67    33    65 1   
    68    34    35 1   
    69    34    66 1   
    70    34    67 1   
    71    35    62 1   
    72    35    63 1   
@<TRIPOS>SUBSTRUCTURE
     1 9ZP         1 TEMP              0 ****  ****    0 ROOT
