@<TRIPOS>MOLECULE
9ZR
  144   143     1     0     0
SMALL
abcg2


@<TRIPOS>ATOM
      1 C1          92.8180    86.5750    87.2880 c3         1 9ZR      -0.088100
      2 C2          94.0870    85.7770    87.5520 c3         1 9ZR      -0.075400
      3 C3          95.3550    86.5870    87.3170 c3         1 9ZR      -0.077400
      4 C11         96.9770    82.6410    84.4010 c3         1 9ZR      -0.044200
      5 C12         96.1740    83.3090    83.2800 c3         1 9ZR      -0.069400
      6 C13         96.2550    82.5850    81.9400 c3         1 9ZR      -0.073400
      7 C14         95.2920    83.1400    80.8920 c3         1 9ZR      -0.074400
      8 C15         95.6210    84.5550    80.4240 c3         1 9ZR      -0.073400
      9 C21         91.7800    82.7470    74.7890 c3         1 9ZR      -0.138400
     10 C22         92.7490    82.7290    73.6380 c          1 9ZR       0.595100
     11 C25         92.8820    82.5240    71.2820 c3         1 9ZR       0.144600
     12 C26         92.1120    81.7540    70.2240 c3         1 9ZR       0.176300
     13 C27         92.7920    81.7950    68.8650 c3         1 9ZR       0.209600
     14 O31         92.8090    84.9680    66.6940 o          1 9ZR      -0.799500
     15 O32         90.8850    83.2880    67.0160 os         1 9ZR      -0.578400
     16 C33         90.0240    83.8680    66.0670 c3         1 9ZR       0.234600
     17 C34         89.5100    85.1720    66.6670 c3         1 9ZR       0.043600
     18 C36         88.0200    87.0730    66.6850 c3         1 9ZR       0.077567
     19 C37         88.8740    86.2790    64.5580 c3         1 9ZR       0.077567
     20 C38         87.2130    84.9800    65.7780 c3         1 9ZR       0.077567
     21 C10         98.4480    82.5360    84.1160 c2         1 9ZR      -0.214200
     22 C16         94.5160    85.2010    79.5920 c3         1 9ZR      -0.076400
     23 C17         94.2250    84.5240    78.2580 c3         1 9ZR      -0.076400
     24 C18         93.0960    85.2210    77.5080 c3         1 9ZR      -0.074400
     25 C19         92.8010    84.6740    76.1170 c3         1 9ZR      -0.079400
     26 C20         92.3760    83.2090    76.1100 c3         1 9ZR      -0.062400
     27 C4          96.6320    85.7940    87.5560 c3         1 9ZR      -0.076400
     28 C42         88.6990    83.1600    69.8550 c3         1 9ZR      -0.149400
     29 C43         87.8790    84.4310    70.0550 c3         1 9ZR      -0.058400
     30 C44         87.3310    84.6410    71.4640 c3         1 9ZR      -0.071400
     31 C45         88.3410    85.0530    72.5280 c3         1 9ZR      -0.078400
     32 C46         87.6610    85.3010    73.8700 c3         1 9ZR      -0.075400
     33 C47         88.5670    85.8590    74.9640 c3         1 9ZR      -0.070400
     34 C48         89.1250    87.2580    74.6490 c3         1 9ZR      -0.043200
     35 C49         90.5480    87.2430    74.1680 c2         1 9ZR      -0.223200
     36 C5          97.8920    86.6060    87.2800 c3         1 9ZR      -0.073400
     37 C50         91.4700    88.1810    74.3820 c2         1 9ZR      -0.218200
     38 C51         91.2940    89.4800    75.1070 c3         1 9ZR      -0.042200
     39 C52         92.0480    89.5380    76.4390 c3         1 9ZR      -0.069400
     40 C53         91.4180    88.6880    77.5350 c3         1 9ZR      -0.077400
     41 C54         92.1890    88.7530    78.8470 c3         1 9ZR      -0.077400
     42 C55         91.5540    87.9430    79.9700 c3         1 9ZR      -0.075400
     43 C56         92.3330    88.0330    81.2740 c3         1 9ZR      -0.089100
     44 C6          99.1980    85.8460    87.5100 c3         1 9ZR      -0.071400
     45 C7          99.3370    84.5430    86.7220 c3         1 9ZR      -0.070400
     46 C8          99.1300    84.7030    85.2140 c3         1 9ZR      -0.045200
     47 C9          99.3750    83.4270    84.4640 c2         1 9ZR      -0.219200
     48 N35         88.4090    85.8590    65.9090 n4         1 9ZR      -0.491000
     49 O23         93.9410    82.8820    73.7180 o          1 9ZR      -0.485000
     50 O24         92.1190    82.5020    72.4860 os         1 9ZR      -0.458100
     51 O28         92.9300    83.1140    68.3850 os         1 9ZR      -0.574400
     52 O30         93.0440    82.4950    65.8870 o          1 9ZR      -0.799500
     53 O39         90.7150    82.0430    70.1260 os         1 9ZR      -0.457100
     54 O41         90.7850    84.2850    70.3130 o          1 9ZR      -0.472000
     55 P29         92.5230    83.5100    66.8530 p5         1 9ZR       1.380800
     56 H1          91.9220    85.9770    87.4590 hc         1 9ZR       0.031367
     57 H2          92.7610    87.4500    87.9390 hc         1 9ZR       0.031367
     58 H3          92.7860    86.9310    86.2570 hc         1 9ZR       0.031367
     59 H4          94.0810    85.4050    88.5810 hc         1 9ZR       0.036700
     60 H5          94.1020    84.8900    86.9110 hc         1 9ZR       0.036700
     61 H6          95.3540    86.9650    86.2890 hc         1 9ZR       0.036700
     62 H7          95.3460    87.4720    87.9630 hc         1 9ZR       0.036700
     63 H8          96.8060    83.1950    85.3280 hc         1 9ZR       0.041700
     64 H9          96.5760    81.6380    84.5710 hc         1 9ZR       0.041700
     65 H10         96.5140    84.3430    83.1750 hc         1 9ZR       0.038200
     66 H11         95.1260    83.3620    83.5920 hc         1 9ZR       0.038200
     67 H12         96.0320    81.5250    82.0990 hc         1 9ZR       0.039200
     68 H13         97.2810    82.6240    81.5570 hc         1 9ZR       0.039200
     69 H14         94.2760    83.1240    81.3020 hc         1 9ZR       0.036700
     70 H15         95.2780    82.4660    80.0310 hc         1 9ZR       0.036700
     71 H16         96.5560    84.5420    79.8530 hc         1 9ZR       0.038200
     72 H17         95.8090    85.1950    81.2900 hc         1 9ZR       0.038200
     73 H18         90.9270    83.3750    74.5130 hc         1 9ZR       0.067200
     74 H19         91.3750    81.7340    74.8890 hc         1 9ZR       0.067200
     75 H20         93.8360    82.0070    71.4140 h1         1 9ZR       0.078700
     76 H21         93.0910    83.5530    70.9970 h1         1 9ZR       0.078700
     77 H22         92.1180    80.7020    70.5220 h1         1 9ZR       0.064700
     78 H23         92.2300    81.1550    68.1790 h1         1 9ZR       0.041700
     79 H24         93.7810    81.3380    68.9780 h1         1 9ZR       0.041700
     80 H26         89.2100    83.1630    65.8860 h1         1 9ZR       0.033700
     81 H27         90.5190    84.0410    65.1060 h1         1 9ZR       0.033700
     82 H28         90.3280    85.8860    66.7550 hx         1 9ZR       0.117700
     83 H29         89.1120    84.9760    67.6610 hx         1 9ZR       0.117700
     84 H30         88.8880    87.7170    66.7990 hx         1 9ZR       0.091144
     85 H31         87.2370    87.6010    66.1470 hx         1 9ZR       0.091144
     86 H32         87.6560    86.7660    67.6620 hx         1 9ZR       0.091144
     87 H33         89.7570    86.9040    64.6650 hx         1 9ZR       0.091144
     88 H34         89.1090    85.4060    63.9570 hx         1 9ZR       0.091144
     89 H35         88.0800    86.8440    64.0760 hx         1 9ZR       0.091144
     90 H36         86.9280    84.6190    66.7640 hx         1 9ZR       0.091144
     91 H37         86.4000    85.5600    65.3490 hx         1 9ZR       0.091144
     92 H38         87.4360    84.1420    65.1250 hx         1 9ZR       0.091144
     93 H39         98.7720    81.6520    83.5740 ha         1 9ZR       0.167000
     94 H40         94.7740    86.2490    79.4050 hc         1 9ZR       0.034700
     95 H41         93.5950    85.2230    80.1880 hc         1 9ZR       0.034700
     96 H42         93.9690    83.4740    78.4220 hc         1 9ZR       0.041200
     97 H43         95.1330    84.5250    77.6430 hc         1 9ZR       0.041200
     98 H44         93.3380    86.2850    77.4180 hc         1 9ZR       0.035200
     99 H45         92.1830    85.1710    78.1130 hc         1 9ZR       0.035200
    100 H46         93.6770    84.8150    75.4800 hc         1 9ZR       0.049700
    101 H47         92.0020    85.2770    75.6730 hc         1 9ZR       0.049700
    102 H48         91.6160    83.0570    76.8820 hc         1 9ZR       0.045700
    103 H49         93.2140    82.5640    76.3840 hc         1 9ZR       0.045700
    104 H50         96.6510    85.4250    88.5870 hc         1 9ZR       0.038200
    105 H51         96.6160    84.9040    86.9180 hc         1 9ZR       0.038200
    106 H52         88.2800    82.3410    70.4450 hc         1 9ZR       0.069200
    107 H53         88.6170    82.8280    68.8140 hc         1 9ZR       0.069200
    108 H54         88.4500    85.3120    69.7470 hc         1 9ZR       0.025700
    109 H55         87.0270    84.3790    69.3730 hc         1 9ZR       0.025700
    110 H56         86.5590    85.4150    71.4110 hc         1 9ZR       0.032700
    111 H57         86.8160    83.7280    71.7840 hc         1 9ZR       0.032700
    112 H58         89.1140    84.2870    72.6510 hc         1 9ZR       0.054200
    113 H59         88.8580    85.9580    72.1920 hc         1 9ZR       0.054200
    114 H60         86.8290    86.0000    73.7230 hc         1 9ZR       0.031700
    115 H61         87.2090    84.3660    74.2160 hc         1 9ZR       0.031700
    116 H62         87.9930    85.9020    75.8920 hc         1 9ZR       0.040200
    117 H63         89.3880    85.1600    75.1580 hc         1 9ZR       0.040200
    118 H64         88.4860    87.7290    73.8920 hc         1 9ZR       0.042700
    119 H65         89.0450    87.8950    75.5310 hc         1 9ZR       0.042700
    120 H66         90.8450    86.3670    73.5980 ha         1 9ZR       0.178000
    121 H67         97.8580    86.9800    86.2520 hc         1 9ZR       0.036700
    122 H68         97.8900    87.4960    87.9170 hc         1 9ZR       0.036700
    123 H69         92.4680    88.0050    73.9890 ha         1 9ZR       0.174000
    124 H70         91.6660    90.2820    74.4620 hc         1 9ZR       0.040700
    125 H71         90.2380    89.6980    75.2800 hc         1 9ZR       0.040700
    126 H72         93.0880    89.2270    76.2840 hc         1 9ZR       0.038700
    127 H73         92.0910    90.5780    76.7760 hc         1 9ZR       0.038700
    128 H74         90.3880    89.0220    77.7000 hc         1 9ZR       0.039200
    129 H75         91.3480    87.6470    77.2030 hc         1 9ZR       0.039200
    130 H76         93.2140    88.4010    78.6830 hc         1 9ZR       0.036700
    131 H77         92.2760    89.7990    79.1630 hc         1 9ZR       0.036700
    132 H78         90.5280    88.2870    80.1300 hc         1 9ZR       0.036200
    133 H79         91.4770    86.8960    79.6600 hc         1 9ZR       0.036200
    134 H80         91.8650    87.4430    82.0640 hc         1 9ZR       0.031367
    135 H81         93.3530    87.6640    81.1490 hc         1 9ZR       0.031367
    136 H82         92.3970    89.0640    81.6250 hc         1 9ZR       0.031367
    137 H83        100.0340    86.5060    87.2600 hc         1 9ZR       0.036700
    138 H84         99.3000    85.6210    88.5760 hc         1 9ZR       0.036700
    139 H85         98.6290    83.7990    87.0970 hc         1 9ZR       0.038700
    140 H86        100.3310    84.1260    86.9080 hc         1 9ZR       0.038700
    141 H87         99.8080    85.4760    84.8400 hc         1 9ZR       0.044200
    142 H88         98.1190    85.0660    85.0170 hc         1 9ZR       0.044200
    143 H89        100.4100    83.2130    84.2110 ha         1 9ZR       0.166000
    144 C40         90.1790    83.2630    70.1320 c          1 9ZR       0.621100
@<TRIPOS>BOND
     1     1     2 1   
     2     1    56 1   
     3     1    57 1   
     4     1    58 1   
     5     2     3 1   
     6     2    59 1   
     7     2    60 1   
     8     3    27 1   
     9     3    61 1   
    10     3    62 1   
    11     4     5 1   
    12     4    21 1   
    13     4    63 1   
    14     4    64 1   
    15     5     6 1   
    16     5    65 1   
    17     5    66 1   
    18     6     7 1   
    19     6    67 1   
    20     6    68 1   
    21     7     8 1   
    22     7    69 1   
    23     7    70 1   
    24     8    22 1   
    25     8    71 1   
    26     8    72 1   
    27     9    10 1   
    28     9    26 1   
    29     9    73 1   
    30     9    74 1   
    31    10    49 2   
    32    10    50 1   
    33    11    12 1   
    34    11    50 1   
    35    11    75 1   
    36    11    76 1   
    37    12    13 1   
    38    12    53 1   
    39    12    77 1   
    40    13    51 1   
    41    13    78 1   
    42    13    79 1   
    43    14    55 1   
    44    15    16 1   
    45    15    55 1   
    46    16    17 1   
    47    16    80 1   
    48    16    81 1   
    49    17    48 1   
    50    17    82 1   
    51    17    83 1   
    52    18    48 1   
    53    18    84 1   
    54    18    85 1   
    55    18    86 1   
    56    19    48 1   
    57    19    87 1   
    58    19    88 1   
    59    19    89 1   
    60    20    48 1   
    61    20    90 1   
    62    20    91 1   
    63    20    92 1   
    64    21    47 2   
    65    21    93 1   
    66    22    23 1   
    67    22    94 1   
    68    22    95 1   
    69    23    24 1   
    70    23    96 1   
    71    23    97 1   
    72    24    25 1   
    73    24    98 1   
    74    24    99 1   
    75    25    26 1   
    76    25   100 1   
    77    25   101 1   
    78    26   102 1   
    79    26   103 1   
    80    27    36 1   
    81    27   104 1   
    82    27   105 1   
    83    28    29 1   
    84    28   106 1   
    85    28   107 1   
    86    28   144 1   
    87    29    30 1   
    88    29   108 1   
    89    29   109 1   
    90    30    31 1   
    91    30   110 1   
    92    30   111 1   
    93    31    32 1   
    94    31   112 1   
    95    31   113 1   
    96    32    33 1   
    97    32   114 1   
    98    32   115 1   
    99    33    34 1   
   100    33   116 1   
   101    33   117 1   
   102    34    35 1   
   103    34   118 1   
   104    34   119 1   
   105    35    37 2   
   106    35   120 1   
   107    36    44 1   
   108    36   121 1   
   109    36   122 1   
   110    37    38 1   
   111    37   123 1   
   112    38    39 1   
   113    38   124 1   
   114    38   125 1   
   115    39    40 1   
   116    39   126 1   
   117    39   127 1   
   118    40    41 1   
   119    40   128 1   
   120    40   129 1   
   121    41    42 1   
   122    41   130 1   
   123    41   131 1   
   124    42    43 1   
   125    42   132 1   
   126    42   133 1   
   127    43   134 1   
   128    43   135 1   
   129    43   136 1   
   130    44    45 1   
   131    44   137 1   
   132    44   138 1   
   133    45    46 1   
   134    45   139 1   
   135    45   140 1   
   136    46    47 1   
   137    46   141 1   
   138    46   142 1   
   139    47   143 1   
   140    51    55 1   
   141    52    55 1   
   142    53   144 1   
   143    54   144 2   
@<TRIPOS>SUBSTRUCTURE
     1 9ZR         1 TEMP              0 ****  ****    0 ROOT
