@<TRIPOS>MOLECULE
9ZR
  144   143     1     0     0
SMALL
No Charge or Current Charge


@<TRIPOS>ATOM
      1 C1          94.9840    84.0420    89.0790 c3         1 9ZR      -0.088100
      2 C2          96.2810    84.3710    88.3150 c3         1 9ZR      -0.075400
      3 C3          96.2780    85.7880    87.7010 c3         1 9ZR      -0.077400
      4 C11         97.7510    83.7410    82.9580 c3         1 9ZR      -0.044200
      5 C12         96.2360    83.6920    82.6620 c3         1 9ZR      -0.069400
      6 C13         95.8900    83.1080    81.2700 c3         1 9ZR      -0.073400
      7 C14         94.3740    82.9590    80.9950 c3         1 9ZR      -0.074400
      8 C15         93.6020    84.3010    80.9510 c3         1 9ZR      -0.073400
      9 C21         89.9180    81.6210    75.4630 c3         1 9ZR      -0.138400
     10 C22         90.8400    82.2480    74.4090 c          1 9ZR       0.595100
     11 C25         91.1750    82.4690    72.0300 c3         1 9ZR       0.144600
     12 C26         90.5550    81.9110    70.7160 c3         1 9ZR       0.176300
     13 C27         91.5590    81.7600    69.5340 c3         1 9ZR       0.209600
     14 O31         94.6440    83.9730    68.7230 o          1 9ZR      -0.799500
     15 O32         93.0190    82.8850    67.0710 os         1 9ZR      -0.578400
     16 C33         92.6750    84.1320    66.4440 c3         1 9ZR       0.234600
     17 C34         91.8370    85.0230    67.3960 c3         1 9ZR       0.043600
     18 C36         90.5740    87.1030    67.9910 c3         1 9ZR       0.077567
     19 C37         92.4540    87.2450    66.3630 c3         1 9ZR       0.077567
     20 C38         90.3080    86.1230    65.7100 c3         1 9ZR       0.077567
     21 C10         98.5190    84.6360    82.0000 c2         1 9ZR      -0.214200
     22 C16         92.0990    84.1690    80.6090 c3         1 9ZR      -0.076400
     23 C17         91.8120    83.7020    79.1630 c3         1 9ZR      -0.076400
     24 C18         90.3110    83.7690    78.7980 c3         1 9ZR      -0.074400
     25 C19         89.9970    83.4200    77.3250 c3         1 9ZR      -0.079400
     26 C20         90.2550    81.9440    76.9410 c3         1 9ZR      -0.062400
     27 C4          97.5770    86.1150    86.9330 c3         1 9ZR      -0.076400
     28 C42         88.0870    84.3680    69.2450 c3         1 9ZR      -0.149400
     29 C43         87.3870    85.6480    69.7690 c3         1 9ZR      -0.058400
     30 C44         86.6570    85.5100    71.1260 c3         1 9ZR      -0.071400
     31 C45         87.5870    85.3560    72.3490 c3         1 9ZR      -0.078400
     32 C46         86.8330    85.4730    73.6930 c3         1 9ZR      -0.075400
     33 C47         87.6960    85.2070    74.9500 c3         1 9ZR      -0.070400
     34 C48         88.8320    86.2290    75.2090 c3         1 9ZR      -0.043200
     35 C49         90.0560    86.0250    74.3300 c2         1 9ZR      -0.223200
     36 C5          97.5640    87.5250    86.2980 c3         1 9ZR      -0.073400
     37 C50         90.9560    86.9530    73.9580 c2         1 9ZR      -0.218200
     38 C51         90.9730    88.4250    74.3320 c3         1 9ZR      -0.042200
     39 C52         92.0410    88.7560    75.3970 c3         1 9ZR      -0.069400
     40 C53         91.7890    88.0760    76.7630 c3         1 9ZR      -0.077400
     41 C54         92.8460    88.4430    77.8270 c3         1 9ZR      -0.077400
     42 C55         92.5920    87.7560    79.1850 c3         1 9ZR      -0.075400
     43 C56         93.6620    88.0830    80.2440 c3         1 9ZR      -0.089100
     44 C6          98.8720    87.9130    85.5610 c3         1 9ZR      -0.071400
     45 C7          99.3000    86.9790    84.4000 c3         1 9ZR      -0.070400
     46 C8          98.2580    86.8410    83.2680 c3         1 9ZR      -0.045200
     47 C9          98.7510    85.9530    82.1420 c2         1 9ZR      -0.219200
     48 N35         91.2970    86.3650    66.8590 n4         1 9ZR      -0.491000
     49 O23         91.9470    82.7090    74.6510 o          1 9ZR      -0.485000
     50 O24         90.3480    82.0620    73.1440 os         1 9ZR      -0.458100
     51 O28         92.4270    82.8990    69.4430 os         1 9ZR      -0.574400
     52 O30         94.4500    81.5110    68.7000 o          1 9ZR      -0.799500
     53 O39         89.3590    82.6330    70.2950 os         1 9ZR      -0.457100
     54 O41         90.3200    84.7250    70.1090 o          1 9ZR      -0.472000
     55 P29         93.7380    82.8080    68.5130 p5         1 9ZR       1.380800
     56 H1          95.0330    83.0290    89.4960 hc         1 9ZR       0.031367
     57 H2          94.8300    84.7460    89.9050 hc         1 9ZR       0.031367
     58 H3          94.1160    84.0960    88.4100 hc         1 9ZR       0.031367
     59 H4          97.1320    84.2730    89.0000 hc         1 9ZR       0.036700
     60 H5          96.4240    83.6300    87.5190 hc         1 9ZR       0.036700
     61 H6          95.4240    85.8820    87.0190 hc         1 9ZR       0.036700
     62 H7          96.1350    86.5270    88.4990 hc         1 9ZR       0.036700
     63 H8          97.8890    84.0870    83.9890 hc         1 9ZR       0.041700
     64 H9          98.1610    82.7240    82.9290 hc         1 9ZR       0.041700
     65 H10         95.8310    84.7060    82.7490 hc         1 9ZR       0.038200
     66 H11         95.7470    83.0870    83.4350 hc         1 9ZR       0.038200
     67 H12         96.3570    82.1190    81.1760 hc         1 9ZR       0.039200
     68 H13         96.3320    83.7380    80.4880 hc         1 9ZR       0.039200
     69 H14         93.9290    82.3080    81.7570 hc         1 9ZR       0.036700
     70 H15         94.2580    82.4430    80.0350 hc         1 9ZR       0.036700
     71 H16         94.0800    84.9700    80.2240 hc         1 9ZR       0.038200
     72 H17         93.6800    84.7930    81.9270 hc         1 9ZR       0.038200
     73 H18         88.8790    81.8580    75.2090 hc         1 9ZR       0.067200
     74 H19         89.9420    80.5390    75.2930 hc         1 9ZR       0.067200
     75 H20         92.1790    82.0380    72.1330 h1         1 9ZR       0.078700
     76 H21         91.2930    83.5580    71.9960 h1         1 9ZR       0.078700
     77 H22         90.2470    80.8830    70.9480 h1         1 9ZR       0.064700
     78 H23         91.0010    81.6210    68.5990 h1         1 9ZR       0.041700
     79 H24         92.1440    80.8480    69.7070 h1         1 9ZR       0.041700
     80 H26         92.0930    83.9380    65.5340 h1         1 9ZR       0.033700
     81 H27         93.5840    84.6710    66.1470 h1         1 9ZR       0.033700
     82 H28         92.4440    85.2480    68.2760 hx         1 9ZR       0.117700
     83 H29         90.9820    84.4360    67.7340 hx         1 9ZR       0.117700
     84 H30         91.2700    87.2670    68.8160 hx         1 9ZR       0.091144
     85 H31         90.2060    88.0620    67.6210 hx         1 9ZR       0.091144
     86 H32         89.7360    86.4950    68.3360 hx         1 9ZR       0.091144
     87 H33         93.1590    87.4080    67.1810 hx         1 9ZR       0.091144
     88 H34         92.9600    86.7460    65.5340 hx         1 9ZR       0.091144
     89 H35         92.0560    88.2040    66.0240 hx         1 9ZR       0.091144
     90 H36         89.4870    85.4960    66.0670 hx         1 9ZR       0.091144
     91 H37         89.9150    87.0820    65.3670 hx         1 9ZR       0.091144
     92 H38         90.8220    85.6230    64.8870 hx         1 9ZR       0.091144
     93 H39         98.9220    84.1090    81.1330 ha         1 9ZR       0.167000
     94 H40         91.6270    85.1470    80.7660 hc         1 9ZR       0.034700
     95 H41         91.6240    83.4780    81.3170 hc         1 9ZR       0.034700
     96 H42         92.1690    82.6730    79.0400 hc         1 9ZR       0.041200
     97 H43         92.3790    84.3240    78.4600 hc         1 9ZR       0.041200
     98 H44         89.9480    84.7860    78.9910 hc         1 9ZR       0.035200
     99 H45         89.7430    83.1020    79.4590 hc         1 9ZR       0.035200
    100 H46         90.5800    84.0810    76.6720 hc         1 9ZR       0.049700
    101 H47         88.9400    83.6460    77.1410 hc         1 9ZR       0.049700
    102 H48         89.6470    81.3010    77.5880 hc         1 9ZR       0.045700
    103 H49         91.3020    81.6810    77.1310 hc         1 9ZR       0.045700
    104 H50         98.4320    86.0330    87.6150 hc         1 9ZR       0.038200
    105 H51         97.7170    85.3610    86.1490 hc         1 9ZR       0.038200
    106 H52         87.3800    83.5300    69.2510 hc         1 9ZR       0.069200
    107 H53         88.3770    84.5460    68.2030 hc         1 9ZR       0.069200
    108 H54         88.1100    86.4710    69.8250 hc         1 9ZR       0.025700
    109 H55         86.6430    85.9490    69.0210 hc         1 9ZR       0.025700
    110 H56         86.0430    86.4080    71.2680 hc         1 9ZR       0.032700
    111 H57         85.9620    84.6620    71.0840 hc         1 9ZR       0.032700
    112 H58         88.0920    84.3840    72.3130 hc         1 9ZR       0.054200
    113 H59         88.3600    86.1320    72.2970 hc         1 9ZR       0.054200
    114 H60         86.3840    86.4700    73.7710 hc         1 9ZR       0.031700
    115 H61         86.0030    84.7560    73.6920 hc         1 9ZR       0.031700
    116 H62         87.0280    85.2190    75.8200 hc         1 9ZR       0.040200
    117 H63         88.1120    84.1940    74.9000 hc         1 9ZR       0.040200
    118 H64         88.4240    87.2410    75.1020 hc         1 9ZR       0.042700
    119 H65         89.1370    86.1370    76.2580 hc         1 9ZR       0.042700
    120 H66         90.1850    85.0000    73.9810 ha         1 9ZR       0.178000
    121 H67         96.7150    87.6070    85.6080 hc         1 9ZR       0.036700
    122 H68         97.3850    88.2640    87.0890 hc         1 9ZR       0.036700
    123 H69         91.7900    86.6590    73.3170 ha         1 9ZR       0.174000
    124 H70         91.1740    89.0230    73.4350 hc         1 9ZR       0.040700
    125 H71         89.9970    88.7610    74.6990 hc         1 9ZR       0.040700
    126 H72         93.0290    88.4620    75.0200 hc         1 9ZR       0.038700
    127 H73         92.0690    89.8430    75.5400 hc         1 9ZR       0.038700
    128 H74         90.7950    88.3610    77.1290 hc         1 9ZR       0.039200
    129 H75         91.7810    86.9870    76.6320 hc         1 9ZR       0.039200
    130 H76         93.8400    88.1580    77.4590 hc         1 9ZR       0.036700
    131 H77         92.8560    89.5310    77.9690 hc         1 9ZR       0.036700
    132 H78         91.6070    88.0520    79.5660 hc         1 9ZR       0.036200
    133 H79         92.5630    86.6710    79.0340 hc         1 9ZR       0.036200
    134 H80         93.4330    87.5720    81.1870 hc         1 9ZR       0.031367
    135 H81         94.6530    87.7550    79.9090 hc         1 9ZR       0.031367
    136 H82         93.7000    89.1620    80.4380 hc         1 9ZR       0.031367
    137 H83         98.7610    88.9320    85.1700 hc         1 9ZR       0.036700
    138 H84         99.6880    87.9540    86.2930 hc         1 9ZR       0.036700
    139 H85         99.5390    85.9850    84.7960 hc         1 9ZR       0.038700
    140 H86        100.2320    87.3680    83.9710 hc         1 9ZR       0.038700
    141 H87         98.0100    87.8350    82.8760 hc         1 9ZR       0.044200
    142 H88         97.3260    86.4380    83.6820 hc         1 9ZR       0.044200
    143 H89         99.3320    86.4830    81.3840 ha         1 9ZR       0.166000
    144 C40         89.3630    83.9760    69.9980 c          1 9ZR       0.621100
@<TRIPOS>BOND
     1     1     2 1   
     2     1    56 1   
     3     1    57 1   
     4     1    58 1   
     5     2     3 1   
     6     2    59 1   
     7     2    60 1   
     8     3    27 1   
     9     3    61 1   
    10     3    62 1   
    11     4     5 1   
    12     4    21 1   
    13     4    63 1   
    14     4    64 1   
    15     5     6 1   
    16     5    65 1   
    17     5    66 1   
    18     6     7 1   
    19     6    67 1   
    20     6    68 1   
    21     7     8 1   
    22     7    69 1   
    23     7    70 1   
    24     8    22 1   
    25     8    71 1   
    26     8    72 1   
    27     9    10 1   
    28     9    26 1   
    29     9    73 1   
    30     9    74 1   
    31    10    49 2   
    32    10    50 1   
    33    11    12 1   
    34    11    50 1   
    35    11    75 1   
    36    11    76 1   
    37    12    13 1   
    38    12    53 1   
    39    12    77 1   
    40    13    51 1   
    41    13    78 1   
    42    13    79 1   
    43    14    55 1   
    44    15    16 1   
    45    15    55 1   
    46    16    17 1   
    47    16    80 1   
    48    16    81 1   
    49    17    48 1   
    50    17    82 1   
    51    17    83 1   
    52    18    48 1   
    53    18    84 1   
    54    18    85 1   
    55    18    86 1   
    56    19    48 1   
    57    19    87 1   
    58    19    88 1   
    59    19    89 1   
    60    20    48 1   
    61    20    90 1   
    62    20    91 1   
    63    20    92 1   
    64    21    47 2   
    65    21    93 1   
    66    22    23 1   
    67    22    94 1   
    68    22    95 1   
    69    23    24 1   
    70    23    96 1   
    71    23    97 1   
    72    24    25 1   
    73    24    98 1   
    74    24    99 1   
    75    25    26 1   
    76    25   100 1   
    77    25   101 1   
    78    26   102 1   
    79    26   103 1   
    80    27    36 1   
    81    27   104 1   
    82    27   105 1   
    83    28    29 1   
    84    28   106 1   
    85    28   107 1   
    86    28   144 1   
    87    29    30 1   
    88    29   108 1   
    89    29   109 1   
    90    30    31 1   
    91    30   110 1   
    92    30   111 1   
    93    31    32 1   
    94    31   112 1   
    95    31   113 1   
    96    32    33 1   
    97    32   114 1   
    98    32   115 1   
    99    33    34 1   
   100    33   116 1   
   101    33   117 1   
   102    34    35 1   
   103    34   118 1   
   104    34   119 1   
   105    35    37 2   
   106    35   120 1   
   107    36    44 1   
   108    36   121 1   
   109    36   122 1   
   110    37    38 1   
   111    37   123 1   
   112    38    39 1   
   113    38   124 1   
   114    38   125 1   
   115    39    40 1   
   116    39   126 1   
   117    39   127 1   
   118    40    41 1   
   119    40   128 1   
   120    40   129 1   
   121    41    42 1   
   122    41   130 1   
   123    41   131 1   
   124    42    43 1   
   125    42   132 1   
   126    42   133 1   
   127    43   134 1   
   128    43   135 1   
   129    43   136 1   
   130    44    45 1   
   131    44   137 1   
   132    44   138 1   
   133    45    46 1   
   134    45   139 1   
   135    45   140 1   
   136    46    47 1   
   137    46   141 1   
   138    46   142 1   
   139    47   143 1   
   140    51    55 1   
   141    52    55 1   
   142    53   144 1   
   143    54   144 2   
@<TRIPOS>SUBSTRUCTURE
     1 9ZR         1 TEMP              0 ****  ****    0 ROOT
