@<TRIPOS>MOLECULE
9ZS
   35    38     1     0     0
SMALL
abcg2


@<TRIPOS>ATOM
      1 C4          -2.4630    -0.4900     0.1040 ca         1 9ZS      -0.109900
      2 C5          -2.9120    -1.2660     1.1700 ca         1 9ZS       0.149000
      3 C6          -4.0500    -2.0480     1.0700 ca         1 9ZS      -0.108500
      4 C11         -0.0030     2.0960     0.5750 ca         1 9ZS      -0.021200
      5 C8          -1.2410     0.3230     0.2160 cc         1 9ZS       0.452400
      6 C12          0.5940     3.3270     0.8460 ca         1 9ZS      -0.207000
      7 C13          1.9670     3.3330     0.7410 ca         1 9ZS       0.389900
      8 C3          -3.2010    -0.5180    -1.0760 ca         1 9ZS       0.149000
      9 C1          -4.7590    -2.0540    -0.1210 ca         1 9ZS      -0.078000
     10 C2          -4.3430    -1.2920    -1.2020 ca         1 9ZS      -0.108500
     11 CL7         -2.0290    -1.2420     2.6530 cl         1 9ZS      -0.170000
     12 N9          -1.2850     1.6400     0.5580 na         1 9ZS      -0.288600
     13 N14          2.7320     2.2770     0.4090 nb         1 9ZS      -0.707000
     14 C15          2.1600     1.1220     0.1560 ca         1 9ZS       0.559900
     15 C16          0.7640     0.9850     0.2280 ca         1 9ZS      -0.044600
     16 N17         -0.0310    -0.1090     0.0100 nd         1 9ZS      -0.541100
     17 N18          2.8880    -0.0050    -0.1810 ns         1 9ZS      -0.315900
     18 C19          4.2390    -0.1510    -0.3450 c          1 9ZS       0.640100
     19 O20          5.0420     0.7510    -0.2230 o          1 9ZS      -0.539100
     20 C21          4.6380    -1.5410    -0.6920 cx         1 9ZS      -0.251700
     21 C22          5.8220    -1.7230    -1.6060 cx         1 9ZS      -0.096900
     22 C23          5.9600    -2.0390    -0.1640 cx         1 9ZS      -0.096900
     23 CL24        -2.6740     0.4370    -2.4140 cl         1 9ZS      -0.170000
     24 H1          -4.3790    -2.6430     1.9100 ha         1 9ZS       0.138500
     25 H2           0.0390     4.2120     1.1210 ha         1 9ZS       0.130000
     26 H3           2.5080     4.2500     0.9380 h4         1 9ZS       0.023100
     27 H4          -5.6490    -2.6620    -0.2080 ha         1 9ZS       0.127000
     28 H5          -4.8980    -1.3010    -2.1290 ha         1 9ZS       0.138500
     29 H6          -2.1170     2.1720     0.7640 hn         1 9ZS       0.365000
     30 H8           2.3260    -0.8310    -0.3300 hn         1 9ZS       0.175000
     31 H9           3.8420    -2.2720    -0.7740 hc         1 9ZS       0.088700
     32 H10          5.7660    -2.5380    -2.3140 hc         1 9ZS       0.082200
     33 H11          6.2980    -0.8260    -1.9810 hc         1 9ZS       0.082200
     34 H12          6.5300    -1.3610     0.4570 hc         1 9ZS       0.082200
     35 H13          6.0000    -3.0760     0.1390 hc         1 9ZS       0.082200
@<TRIPOS>BOND
     1     1     2 ar  
     2     1     5 1   
     3     1     8 ar  
     4     2     3 ar  
     5     2    11 1   
     6     3     9 ar  
     7     3    24 1   
     8     4     6 ar  
     9     4    12 1   
    10     4    15 ar  
    11     5    12 1   
    12     5    16 2   
    13     6     7 ar  
    14     6    25 1   
    15     7    13 ar  
    16     7    26 1   
    17     8    10 ar  
    18     8    23 1   
    19     9    10 ar  
    20     9    27 1   
    21    10    28 1   
    22    12    29 1   
    23    13    14 ar  
    24    14    15 ar  
    25    14    17 1   
    26    15    16 1   
    27    17    18 1   
    28    17    30 1   
    29    18    19 2   
    30    18    20 1   
    31    20    21 1   
    32    20    22 1   
    33    20    31 1   
    34    21    22 1   
    35    21    32 1   
    36    21    33 1   
    37    22    34 1   
    38    22    35 1   
@<TRIPOS>SUBSTRUCTURE
     1 9ZS         1 TEMP              0 ****  ****    0 ROOT
