@<TRIPOS>MOLECULE
9ZS
   35    38     1     0     0
SMALL
No Charge or Current Charge


@<TRIPOS>ATOM
      1 C4          -2.4510    -0.4750     0.0270 ca         1 9ZS      -0.109900
      2 C5          -2.6660    -1.6040     0.8540 ca         1 9ZS       0.149000
      3 C6          -3.8300    -2.3790     0.7150 ca         1 9ZS      -0.108500
      4 C11          0.0800     2.0880     0.3880 ca         1 9ZS      -0.021200
      5 C8          -1.2300     0.3220     0.1490 cc         1 9ZS       0.452400
      6 C12          0.6620     3.3480     0.5400 ca         1 9ZS      -0.207000
      7 C13          2.0720     3.3990     0.5560 ca         1 9ZS       0.389900
      8 C3          -3.4230    -0.1600    -0.9530 ca         1 9ZS       0.149000
      9 C1          -4.7900    -2.0520    -0.2540 ca         1 9ZS      -0.078000
     10 C2          -4.5820    -0.9430    -1.0880 ca         1 9ZS      -0.108500
     11 Cl7         -1.5340    -2.0520     2.1320 cl         1 9ZS      -0.170000
     12 N9          -1.2210     1.7050     0.3180 na         1 9ZS      -0.288600
     13 N14          2.8590     2.2950     0.4370 nb         1 9ZS      -0.707000
     14 C15          2.2470     1.0890     0.3130 ca         1 9ZS       0.559900
     15 C16          0.8370     0.9670     0.2680 ca         1 9ZS      -0.044600
     16 N17          0.0280    -0.1680     0.1120 nd         1 9ZS      -0.541100
     17 N18          3.0710    -0.0310     0.1410 ns         1 9ZS      -0.315900
     18 C19          4.3830    -0.2520     0.4800 c          1 9ZS       0.640100
     19 O20          5.0990     0.5420     1.0760 o          1 9ZS      -0.539100
     20 C21          4.8790    -1.6200     0.0720 cx         1 9ZS      -0.251700
     21 C22          4.9060    -1.9810    -1.4010 cx         1 9ZS      -0.096900
     22 C23          6.2000    -1.7320    -0.6640 cx         1 9ZS      -0.096900
     23 Cl24        -3.2100     1.1870    -2.0730 cl         1 9ZS      -0.170000
     24 H1          -3.9890    -3.2360     1.3650 ha         1 9ZS       0.138500
     25 H2           0.0660     4.2520     0.6340 ha         1 9ZS       0.130000
     26 H3           2.5880     4.3520     0.6630 h4         1 9ZS       0.023100
     27 H4          -5.6890    -2.6560    -0.3610 ha         1 9ZS       0.127000
     28 H5          -5.3190    -0.6910    -1.8470 ha         1 9ZS       0.138500
     29 H6          -2.0370     2.3000     0.3680 hn         1 9ZS       0.365000
     30 H8           2.6030    -0.8150    -0.2920 hn         1 9ZS       0.175000
     31 H9           4.6380    -2.4170     0.7700 hc         1 9ZS       0.088700
     32 H10          4.6700    -3.0060    -1.6780 hc         1 9ZS       0.082200
     33 H11          4.5880    -1.2330    -2.1250 hc         1 9ZS       0.082200
     34 H12          6.7440    -0.8180    -0.8920 hc         1 9ZS       0.082200
     35 H13          6.8320    -2.5910    -0.4460 hc         1 9ZS       0.082200
@<TRIPOS>BOND
     1     1     2 ar  
     2     1     5 1   
     3     1     8 ar  
     4     2     3 ar  
     5     2    11 1   
     6     3     9 ar  
     7     3    24 1   
     8     4     6 ar  
     9     4    12 1   
    10     4    15 ar  
    11     5    12 1   
    12     5    16 2   
    13     6     7 ar  
    14     6    25 1   
    15     7    13 ar  
    16     7    26 1   
    17     8    10 ar  
    18     8    23 1   
    19     9    10 ar  
    20     9    27 1   
    21    10    28 1   
    22    12    29 1   
    23    13    14 ar  
    24    14    15 ar  
    25    14    17 1   
    26    15    16 1   
    27    17    18 1   
    28    17    30 1   
    29    18    19 2   
    30    18    20 1   
    31    20    21 1   
    32    20    22 1   
    33    20    31 1   
    34    21    22 1   
    35    21    32 1   
    36    21    33 1   
    37    22    34 1   
    38    22    35 1   
@<TRIPOS>SUBSTRUCTURE
     1 9ZS         1 TEMP              0 ****  ****    0 ROOT
