@<TRIPOS>MOLECULE
9ZT
   39    40     1     0     0
SMALL
abcg2


@<TRIPOS>ATOM
      1 CAA          6.2470     0.1710     0.5880 c3         1 9ZT       0.153900
      2 OAN          5.3750    -0.6230    -0.1870 os         1 9ZT      -0.350100
      3 CAR          4.0990    -0.2160    -0.3360 ca         1 9ZT       0.120100
      4 CAK          3.2680    -1.0370    -1.0980 ca         1 9ZT      -0.171500
      5 CAI          1.9450    -0.6890    -1.3040 ca         1 9ZT      -0.070500
      6 CAJ          3.5780     0.9550     0.2100 ca         1 9ZT      -0.171500
      7 CAH          2.2470     1.2830    -0.0080 ca         1 9ZT      -0.070500
      8 CAQ          1.4050     0.4750    -0.7620 ca         1 9ZT      -0.102300
      9 CAL         -0.0410     0.8360    -0.9630 c3         1 9ZT      -0.020100
     10 CAP         -0.7000    -0.7850     0.8350 c          1 9ZT       0.574100
     11 OAC         -0.0770    -1.0610     1.8350 o          1 9ZT      -0.555100
     12 CAT         -1.3530    -1.8910     0.0280 c6         1 9ZT       0.022300
     13 CAU         -0.8790     0.6180     0.3150 c6         1 9ZT      -0.146700
     14 OAF         -1.1790    -3.1380     0.6310 oh         1 9ZT      -0.677000
     15 CAS         -2.8410    -1.5990    -0.2040 c6         1 9ZT       0.167300
     16 OAE         -3.3850    -2.5000    -1.1400 oh         1 9ZT      -0.667000
     17 CAM         -3.0520    -0.1860    -0.7260 c6         1 9ZT      -0.057400
     18 CAV         -2.4080     0.8480     0.1940 c6         1 9ZT       0.041000
     19 CAO         -2.7100     2.2930    -0.2730 c          1 9ZT       0.701000
     20 OAB         -2.5390     2.5750    -1.4710 o          1 9ZT      -0.706500
     21 OAD         -3.1040     3.0610     0.6240 o          1 9ZT      -0.706500
     22 OAG         -2.9400     0.6860     1.4900 oh         1 9ZT      -0.708000
     23 HAM1        -2.6550    -0.1000    -1.7390 hc         1 9ZT       0.063200
     24 HAM2        -4.1260     0.0080    -0.7960 hc         1 9ZT       0.063200
     25 HAG         -3.1530     1.5990     1.7530 ho         1 9ZT       0.481000
     26 HAU         -0.4990     1.3000     1.0830 hc         1 9ZT       0.076700
     27 HAS         -3.3500    -1.7020     0.7630 h1         1 9ZT       0.046700
     28 HAE         -3.4440    -3.3650    -0.7250 ho         1 9ZT       0.438000
     29 HAT         -0.8590    -1.8800    -0.9580 h1         1 9ZT       0.069700
     30 HAF         -0.7430    -2.9840     1.4810 ho         1 9ZT       0.461000
     31 HAL1        -0.1240     1.8850    -1.2460 hc         1 9ZT       0.073200
     32 HAL2        -0.4440     0.2660    -1.8020 hc         1 9ZT       0.073200
     33 HAI          1.3220    -1.3440    -1.9010 ha         1 9ZT       0.116000
     34 HAH          1.8680     2.2050     0.4200 ha         1 9ZT       0.116000
     35 HAK          3.6660    -1.9480    -1.5280 ha         1 9ZT       0.111500
     36 HAJ          4.1870     1.6220     0.8040 ha         1 9ZT       0.111500
     37 HAA1         6.3790     1.1710     0.1650 h1         1 9ZT       0.033367
     38 HAA2         5.9020     0.2700     1.6200 h1         1 9ZT       0.033367
     39 HAA3         7.2090    -0.3350     0.5900 h1         1 9ZT       0.033367
@<TRIPOS>BOND
     1     1     2 1   
     2     1    37 1   
     3     1    38 1   
     4     1    39 1   
     5     2     3 1   
     6     3     4 ar  
     7     3     6 ar  
     8     4     5 ar  
     9     4    35 1   
    10     5     8 ar  
    11     5    33 1   
    12     6     7 ar  
    13     6    36 1   
    14     7     8 ar  
    15     7    34 1   
    16     8     9 1   
    17     9    13 1   
    18     9    31 1   
    19     9    32 1   
    20    10    11 2   
    21    10    12 1   
    22    10    13 1   
    23    12    14 1   
    24    12    15 1   
    25    12    29 1   
    26    13    18 1   
    27    13    26 1   
    28    14    30 1   
    29    15    16 1   
    30    15    17 1   
    31    15    27 1   
    32    16    28 1   
    33    17    18 1   
    34    17    23 1   
    35    17    24 1   
    36    18    19 1   
    37    18    22 1   
    38    19    20 1   
    39    19    21 1   
    40    22    25 1   
@<TRIPOS>SUBSTRUCTURE
     1 9ZT         1 TEMP              0 ****  ****    0 ROOT
