@<TRIPOS>MOLECULE
9ZT
   39    40     1     0     0
SMALL
No Charge or Current Charge


@<TRIPOS>ATOM
      1 CAA          6.4200     0.3680     0.5970 c3         1 9ZT       0.153900
      2 OAN          5.5210    -0.4540    -0.1680 os         1 9ZT      -0.350100
      3 CAR          4.1870    -0.1370    -0.3230 ca         1 9ZT       0.120100
      4 CAK          3.3900    -1.0040    -1.0880 ca         1 9ZT      -0.171500
      5 CAI          2.0250    -0.7340    -1.2820 ca         1 9ZT      -0.070500
      6 CAJ          3.6060     1.0140     0.2510 ca         1 9ZT      -0.171500
      7 CAH          2.2390     1.2850     0.0570 ca         1 9ZT      -0.070500
      8 CAQ          1.4410     0.4120    -0.7080 ca         1 9ZT      -0.102300
      9 CAL         -0.0410     0.7100    -0.9120 c3         1 9ZT      -0.020100
     10 CAP         -0.7520    -0.9870     0.8100 c          1 9ZT       0.574100
     11 OAC          0.1130    -1.3270     1.6140 o          1 9ZT      -0.555100
     12 CAT         -1.6170    -2.0530     0.0650 c6         1 9ZT       0.022300
     13 CAU         -0.9130     0.4890     0.3760 c6         1 9ZT      -0.146700
     14 OAF         -1.6170    -3.3420     0.7440 oh         1 9ZT      -0.677000
     15 CAS         -3.0670    -1.5700    -0.1960 c6         1 9ZT       0.167300
     16 OAE         -3.7120    -2.4830    -1.0900 oh         1 9ZT      -0.667000
     17 CAM         -3.1230    -0.1300    -0.7570 c6         1 9ZT      -0.057400
     18 CAV         -2.4120     0.9050     0.1770 c6         1 9ZT       0.041000
     19 CAO         -2.5040     2.3920    -0.3920 c          1 9ZT       0.701000
     20 OAB         -3.1450     2.5890    -1.4160 o          1 9ZT      -0.706500
     21 OAD         -2.3290     3.2820     0.4320 o          1 9ZT      -0.706500
     22 OAG         -3.0420     0.8650     1.4820 oh         1 9ZT      -0.708000
     23 HAM1        -2.6920    -0.1050    -1.7660 hc         1 9ZT       0.063200
     24 HAM2        -4.1770     0.1560    -0.8770 hc         1 9ZT       0.063200
     25 HAG         -3.0290     1.8020     1.7960 ho         1 9ZT       0.481000
     26 HAU         -0.4490     1.1090     1.1550 hc         1 9ZT       0.076700
     27 HAS         -3.5980    -1.5760     0.7680 h1         1 9ZT       0.046700
     28 HAE         -3.4320    -3.3740    -0.7800 ho         1 9ZT       0.438000
     29 HAT         -1.1260    -2.1530    -0.9140 h1         1 9ZT       0.069700
     30 HAF         -0.7750    -3.3910     1.2570 ho         1 9ZT       0.461000
     31 HAL1        -0.1250     1.7490    -1.2530 hc         1 9ZT       0.073200
     32 HAL2        -0.4210     0.1070    -1.7460 hc         1 9ZT       0.073200
     33 HAI          1.4240    -1.4180    -1.8770 ha         1 9ZT       0.116000
     34 HAH          1.8010     2.1750     0.5030 ha         1 9ZT       0.116000
     35 HAK          3.8340    -1.8910    -1.5330 ha         1 9ZT       0.111500
     36 HAJ          4.1930     1.7070     0.8470 ha         1 9ZT       0.111500
     37 HAA1         6.4820     1.3780     0.1720 h1         1 9ZT       0.033367
     38 HAA2         6.0870     0.4440     1.6400 h1         1 9ZT       0.033367
     39 HAA3         7.4280    -0.0650     0.5920 h1         1 9ZT       0.033367
@<TRIPOS>BOND
     1     1     2 1   
     2     1    37 1   
     3     1    38 1   
     4     1    39 1   
     5     2     3 1   
     6     3     4 ar  
     7     3     6 ar  
     8     4     5 ar  
     9     4    35 1   
    10     5     8 ar  
    11     5    33 1   
    12     6     7 ar  
    13     6    36 1   
    14     7     8 ar  
    15     7    34 1   
    16     8     9 1   
    17     9    13 1   
    18     9    31 1   
    19     9    32 1   
    20    10    11 2   
    21    10    12 1   
    22    10    13 1   
    23    12    14 1   
    24    12    15 1   
    25    12    29 1   
    26    13    18 1   
    27    13    26 1   
    28    14    30 1   
    29    15    16 1   
    30    15    17 1   
    31    15    27 1   
    32    16    28 1   
    33    17    18 1   
    34    17    23 1   
    35    17    24 1   
    36    18    19 1   
    37    18    22 1   
    38    19    20 1   
    39    19    21 1   
    40    22    25 1   
@<TRIPOS>SUBSTRUCTURE
     1 9ZT         1 TEMP              0 ****  ****    0 ROOT
