@<TRIPOS>MOLECULE
9ZU
   49    52     1     0     0
SMALL
bcc


@<TRIPOS>ATOM
      1 C1           6.0050    -5.9210    81.7140 c6         1 9ZU      -0.075200
      2 C2           5.9260    -6.4980    83.1150 c6         1 9ZU      -0.064400
      3 C3           4.4860    -6.5010    83.5970 c6         1 9ZU      -0.182400
      4 C4           3.8610    -5.1270    83.5620 c          1 9ZU       0.610300
      5 C5           4.2760    -4.2320    82.4740 ce         1 9ZU      -0.496400
      6 C6           5.3040    -4.6110    81.6110 c2         1 9ZU       0.289900
      7 C9           3.6530    -2.9470    82.2480 c          1 9ZU       0.634900
      8 C10          2.5210    -2.4360    83.0820 ca         1 9ZU      -0.136600
      9 C11          2.8310    -1.3890    83.9510 ca         1 9ZU      -0.057000
     10 C12          1.8540    -0.8070    84.7200 ca         1 9ZU      -0.116000
     11 C13          0.5400    -1.2610    84.6140 ca         1 9ZU       0.188400
     12 C14          0.2150    -2.2950    83.7190 ca         1 9ZU      -0.182600
     13 C15          1.2180    -2.8980    82.9280 ca         1 9ZU       0.049700
     14 C16         -1.1830    -2.7270    83.6610 c          1 9ZU       0.725100
     15 C19         -1.6020    -1.0630    85.3630 cc         1 9ZU       0.416900
     16 C22         -3.4160    -2.5060    84.5350 ca         1 9ZU       0.005600
     17 C23         -4.3150    -1.9490    83.6390 ca         1 9ZU      -0.096500
     18 C24         -5.6230    -2.4090    83.6160 ca         1 9ZU      -0.124000
     19 C25         -6.0220    -3.4190    84.4830 ca         1 9ZU      -0.111000
     20 C26         -5.1110    -3.9750    85.3690 ca         1 9ZU      -0.124000
     21 C27         -3.8000    -3.5210    85.3960 ca         1 9ZU      -0.096500
     22 C28          0.9330    -4.0030    81.9530 c3         1 9ZU      -0.055800
     23 C29         -2.5830    -0.3780    86.3060 c3         1 9ZU       0.656600
     24 F30         -3.0850    -1.2420    87.1900 f          1 9ZU      -0.215633
     25 F31         -1.9740     0.5820    86.9840 f          1 9ZU      -0.215633
     26 F32         -3.6010     0.1790    85.6490 f          1 9ZU      -0.215633
     27 N17         -0.3980    -0.6590    85.4180 nd         1 9ZU      -0.589100
     28 N18         -2.0520    -2.0580    84.5420 n          1 9ZU      -0.321500
     29 O7           5.7070    -3.8480    80.6460 oh         1 9ZU      -0.497100
     30 O8           3.0320    -4.8010    84.3900 o          1 9ZU      -0.533100
     31 O20         -1.6340    -3.5930    82.9460 o          1 9ZU      -0.580500
     32 O21          4.0560    -2.1850    81.3570 o          1 9ZU      -0.596100
     33 H1           5.5250    -6.6010    80.9990 hc         1 9ZU       0.080700
     34 H2           7.0370    -5.7990    81.3800 hc         1 9ZU       0.080700
     35 H3           6.3280    -7.5110    83.1190 hc         1 9ZU       0.057200
     36 H4           6.5470    -5.9070    83.7930 hc         1 9ZU       0.057200
     37 H5           4.3990    -6.8980    84.6090 hc         1 9ZU       0.072700
     38 H6           3.8840    -7.1470    82.9470 hc         1 9ZU       0.072700
     39 H11          3.8530    -1.0410    84.0320 ha         1 9ZU       0.143000
     40 H12          2.0810    -0.0040    85.4080 ha         1 9ZU       0.159000
     41 H13         -3.9940    -1.1660    82.9640 ha         1 9ZU       0.145500
     42 H14         -6.3300    -1.9770    82.9210 ha         1 9ZU       0.138000
     43 H15         -7.0440    -3.7750    84.4640 ha         1 9ZU       0.135000
     44 H16         -5.4170    -4.7650    86.0420 ha         1 9ZU       0.138000
     45 H17         -3.0820    -3.9580    86.0770 ha         1 9ZU       0.145500
     46 H18          0.5570    -4.8920    82.4590 hc         1 9ZU       0.057367
     47 H19          0.1870    -3.7100    81.2170 hc         1 9ZU       0.057367
     48 H20          1.8260    -4.2940    81.4060 hc         1 9ZU       0.057367
     49 H21          5.1500    -3.0020    80.6870 ho         1 9ZU       0.510000
@<TRIPOS>BOND
     1     1     2 1   
     2     1     6 1   
     3     1    33 1   
     4     1    34 1   
     5     2     3 1   
     6     2    35 1   
     7     2    36 1   
     8     3     4 1   
     9     3    37 1   
    10     3    38 1   
    11     4     5 1   
    12     4    30 2   
    13     5     6 2   
    14     5     7 1   
    15     6    29 1   
    16     7     8 1   
    17     7    32 2   
    18     8     9 ar  
    19     8    13 ar  
    20     9    10 ar  
    21     9    39 1   
    22    10    11 ar  
    23    10    40 1   
    24    11    12 ar  
    25    11    27 1   
    26    12    13 ar  
    27    12    14 1   
    28    13    22 1   
    29    14    28 1   
    30    14    31 2   
    31    15    23 1   
    32    15    27 2   
    33    15    28 1   
    34    16    17 ar  
    35    16    21 ar  
    36    16    28 1   
    37    17    18 ar  
    38    17    41 1   
    39    18    19 ar  
    40    18    42 1   
    41    19    20 ar  
    42    19    43 1   
    43    20    21 ar  
    44    20    44 1   
    45    21    45 1   
    46    22    46 1   
    47    22    47 1   
    48    22    48 1   
    49    23    24 1   
    50    23    25 1   
    51    23    26 1   
    52    29    49 1   
@<TRIPOS>SUBSTRUCTURE
     1 9ZU         1 TEMP              0 ****  ****    0 ROOT
