@<TRIPOS>MOLECULE
9ZU
   49    52     1     0     0
SMALL
No Charge or Current Charge


@<TRIPOS>ATOM
      1 C1           5.3110    -6.1580    81.4740 c6         1 9ZU      -0.075200
      2 C2           5.2290    -6.8770    82.8390 c6         1 9ZU      -0.064400
      3 C3           3.9770    -6.4080    83.6080 c6         1 9ZU      -0.182400
      4 C4           3.9810    -4.8890    83.7920 c          1 9ZU       0.610300
      5 C5           4.3860    -4.0770    82.6140 ce         1 9ZU      -0.496400
      6 C6           5.0130    -4.6680    81.5730 c2         1 9ZU       0.289900
      7 C9           4.0710    -2.6230    82.6040 c          1 9ZU       0.634900
      8 C10          2.8190    -2.0940    83.2610 ca         1 9ZU      -0.136600
      9 C11          2.9660    -0.9570    84.0700 ca         1 9ZU      -0.039000
     10 C12          1.8690    -0.4290    84.7530 ca         1 9ZU      -0.098000
     11 C13          0.6060    -1.0270    84.6640 ca         1 9ZU       0.188400
     12 C14          0.4280    -2.1640    83.8560 ca         1 9ZU      -0.182600
     13 C15          1.5320    -2.6810    83.0990 ca         1 9ZU       0.049700
     14 C16         -0.9400    -2.7770    83.8630 c          1 9ZU       0.582600
     15 C19         -1.6280    -0.9430    85.3230 cc         1 9ZU       0.416900
     16 C22         -3.2710    -2.6160    84.5820 ca         1 9ZU       0.005600
     17 C23         -4.1440    -2.3000    83.5230 ca         1 9ZU      -0.078500
     18 C24         -5.4090    -2.9090    83.4410 ca         1 9ZU      -0.106000
     19 C25         -5.7860    -3.8760    84.3870 ca         1 9ZU      -0.093000
     20 C26         -4.8880    -4.2510    85.4010 ca         1 9ZU      -0.106000
     21 C27         -3.6240    -3.6400    85.4820 ca         1 9ZU      -0.078500
     22 C28          1.3360    -3.7970    82.0620 c3         1 9ZU      -0.055800
     23 C29         -2.7480    -0.2360    86.1130 c3         1 9ZU       0.292700
     24 F30         -3.2880    -1.0370    87.0620 f          1 9ZU      -0.094333
     25 F31         -2.3130     0.8730    86.7640 f          1 9ZU      -0.094333
     26 F32         -3.7590     0.1750    85.3110 f          1 9ZU      -0.094333
     27 N17         -0.4030    -0.4070    85.4030 nd         1 9ZU      -0.589100
     28 N18         -1.9300    -2.0970    84.5800 n          1 9ZU      -0.254500
     29 O7           5.4230    -3.9900    80.4980 oh         1 9ZU      -0.536100
     30 O8           3.6740    -4.3870    84.8610 o          1 9ZU      -0.533100
     31 O20         -1.2030    -3.8350    83.3050 o          1 9ZU      -0.505000
     32 O21          4.7630    -1.8730    81.9250 o          1 9ZU      -0.596100
     33 H1           4.5910    -6.6100    80.7790 hc         1 9ZU       0.080700
     34 H2           6.3050    -6.3160    81.0340 hc         1 9ZU       0.080700
     35 H3           5.2100    -7.9660    82.6950 hc         1 9ZU       0.057200
     36 H4           6.1280    -6.6530    83.4320 hc         1 9ZU       0.057200
     37 H5           3.8480    -6.9130    84.5740 hc         1 9ZU       0.072700
     38 H6           3.1150    -6.6440    82.9680 hc         1 9ZU       0.072700
     39 H11          3.9410    -0.4870    84.1830 ha         1 9ZU       0.125000
     40 H12          2.0040     0.4520    85.3760 ha         1 9ZU       0.141000
     41 H13         -3.8470    -1.5710    82.7720 ha         1 9ZU       0.127500
     42 H14         -6.0900    -2.6400    82.6370 ha         1 9ZU       0.120000
     43 H15         -6.7630    -4.3510    84.3220 ha         1 9ZU       0.117000
     44 H16         -5.1660    -5.0220    86.1160 ha         1 9ZU       0.120000
     45 H17         -2.9220    -3.9540    86.2510 ha         1 9ZU       0.127500
     46 H18          1.2490    -4.7790    82.5410 hc         1 9ZU       0.057367
     47 H19          0.4370    -3.6270    81.4600 hc         1 9ZU       0.057367
     48 H20          2.1450    -3.8500    81.3270 hc         1 9ZU       0.057367
     49 H21          5.2910    -3.0390    80.7430 ho         1 9ZU       0.549000
@<TRIPOS>BOND
     1     1     2 1   
     2     1     6 1   
     3     1    33 1   
     4     1    34 1   
     5     2     3 1   
     6     2    35 1   
     7     2    36 1   
     8     3     4 1   
     9     3    37 1   
    10     3    38 1   
    11     4     5 1   
    12     4    30 2   
    13     5     6 2   
    14     5     7 1   
    15     6    29 1   
    16     7     8 1   
    17     7    32 2   
    18     8     9 ar  
    19     8    13 ar  
    20     9    10 ar  
    21     9    39 1   
    22    10    11 ar  
    23    10    40 1   
    24    11    12 ar  
    25    11    27 1   
    26    12    13 ar  
    27    12    14 1   
    28    13    22 1   
    29    14    28 1   
    30    14    31 2   
    31    15    23 1   
    32    15    27 2   
    33    15    28 1   
    34    16    17 ar  
    35    16    21 ar  
    36    16    28 1   
    37    17    18 ar  
    38    17    41 1   
    39    18    19 ar  
    40    18    42 1   
    41    19    20 ar  
    42    19    43 1   
    43    20    21 ar  
    44    20    44 1   
    45    21    45 1   
    46    22    46 1   
    47    22    47 1   
    48    22    48 1   
    49    23    24 1   
    50    23    25 1   
    51    23    26 1   
    52    29    49 1   
@<TRIPOS>SUBSTRUCTURE
     1 9ZU         1 TEMP              0 ****  ****    0 ROOT
