@<TRIPOS>MOLECULE
9ZV
   42    45     1     0     0
SMALL
bcc


@<TRIPOS>ATOM
      1 C13          2.7280     0.8000    -1.4940 c3         1 9ZV      -0.052400
      2 N2           0.4700     0.4520    -0.8190 nc         1 9ZV      -0.460100
      3 C17          5.4940     0.9910     1.7990 ca         1 9ZV      -0.132000
      4 C11          1.7720    -1.5600    -1.1370 c          1 9ZV       0.601200
      5 C9          -3.8340    -2.4280     0.8310 ca         1 9ZV      -0.185300
      6 C8          -3.8020    -3.8020     0.9250 ca         1 9ZV      -0.099000
      7 N1           0.7080    -2.3000    -0.7280 nc         1 9ZV      -0.449400
      8 O1          -2.2240     4.4940    -0.5460 o          1 9ZV      -0.839800
      9 O2           2.8260    -2.0600    -1.4870 o          1 9ZV      -0.544100
     10 C1          -3.1030     2.3940     0.1910 c3         1 9ZV      -0.207400
     11 C3          -1.7410     0.2980    -0.0950 cc         1 9ZV       0.623800
     12 C4          -2.7020    -1.7330     0.3890 ca         1 9ZV       0.449600
     13 C5          -1.5480    -2.4500     0.0510 ca         1 9ZV      -0.197300
     14 C6          -1.5250    -3.8460     0.1470 ca         1 9ZV      -0.052000
     15 C7          -2.6460    -4.5150     0.5820 ca         1 9ZV      -0.165000
     16 C10         -0.3990    -1.7050    -0.3940 cd         1 9ZV       0.177700
     17 C12          1.5830    -0.0920    -1.1400 cd         1 9ZV       0.282300
     18 C14          3.7120     0.8610    -0.3490 ca         1 9ZV      -0.081300
     19 C19          3.3690     1.5430     0.8170 ca         1 9ZV      -0.110000
     20 C18          4.2530     1.6100     1.8840 ca         1 9ZV      -0.134500
     21 C16          5.8420     0.3080     0.6420 ca         1 9ZV      -0.134500
     22 C15          4.9540     0.2410    -0.4240 ca         1 9ZV      -0.110000
     23 N3          -0.5460    -0.3470    -0.4420 na         1 9ZV      -0.067800
     24 C           -3.1720     3.9230     0.0290 c          1 9ZV       0.927600
     25 O           -4.1980     4.4670     0.4860 o          1 9ZV      -0.839800
     26 N           -2.7580    -0.3650     0.2990 nd         1 9ZV      -0.708000
     27 H1           3.2160     0.4300    -2.3970 hc         1 9ZV       0.075700
     28 H2           2.3390     1.7970    -1.7090 hc         1 9ZV       0.075700
     29 H3           6.1860     1.0420     2.6300 ha         1 9ZV       0.121000
     30 H4          -4.7210    -1.8690     1.0960 ha         1 9ZV       0.157000
     31 H5          -4.6780    -4.3350     1.2680 ha         1 9ZV       0.128000
     32 H7          -3.9090     1.9520    -0.4020 hc         1 9ZV       0.035700
     33 H8          -3.3410     2.1400     1.2270 hc         1 9ZV       0.035700
     34 H9          -1.5190     2.0680    -1.2360 hc         1 9ZV       0.083700
     35 H10         -0.9630     2.2040     0.3990 hc         1 9ZV       0.083700
     36 H11         -0.6270    -4.3850    -0.1210 ha         1 9ZV       0.160000
     37 H12         -2.6360    -5.5930     0.6590 ha         1 9ZV       0.129000
     38 H13          2.4030     2.0310     0.8870 ha         1 9ZV       0.141500
     39 H14          3.9740     2.1490     2.7810 ha         1 9ZV       0.126500
     40 H15          6.8070    -0.1760     0.5680 ha         1 9ZV       0.126500
     41 H16          5.2330    -0.2950    -1.3230 ha         1 9ZV       0.141500
     42 C2          -1.7700     1.7890    -0.2100 c3         1 9ZV      -0.111700
@<TRIPOS>BOND
     1     1    17 1   
     2     1    18 1   
     3     1    27 1   
     4     1    28 1   
     5     2    17 2   
     6     2    23 1   
     7     3    20 ar  
     8     3    21 ar  
     9     3    29 1   
    10     4     7 1   
    11     4     9 2   
    12     4    17 1   
    13     5     6 ar  
    14     5    12 ar  
    15     5    30 1   
    16     6    15 ar  
    17     6    31 1   
    18     7    16 2   
    19     8    24 1   
    20    10    24 1   
    21    10    32 1   
    22    10    33 1   
    23    10    42 1   
    24    11    23 1   
    25    11    26 2   
    26    11    42 1   
    27    12    13 ar  
    28    12    26 1   
    29    13    14 ar  
    30    13    16 1   
    31    14    15 ar  
    32    14    36 1   
    33    15    37 1   
    34    16    23 1   
    35    18    19 ar  
    36    18    22 ar  
    37    19    20 ar  
    38    19    38 1   
    39    20    39 1   
    40    21    22 ar  
    41    21    40 1   
    42    22    41 1   
    43    24    25 1   
    44    34    42 1   
    45    35    42 1   
@<TRIPOS>SUBSTRUCTURE
     1 9ZV         1 TEMP              0 ****  ****    0 ROOT
