@<TRIPOS>MOLECULE
9ZV
   42    45     1     0     0
SMALL
No Charge or Current Charge


@<TRIPOS>ATOM
      1 C13          2.8460     0.6240    -1.5090 c3         1 9ZV      -0.052400
      2 N2           0.5220     0.4690    -0.7950 nc         1 9ZV      -0.460100
      3 C17          5.5430     1.3440     1.8200 ca         1 9ZV      -0.114000
      4 C11          1.7860    -1.6970    -1.1200 c          1 9ZV       0.601200
      5 C9          -3.9380    -2.5210     0.7000 ca         1 9ZV      -0.102000
      6 C8          -3.9630    -3.9250     0.7500 ca         1 9ZV      -0.081000
      7 N1           0.6630    -2.3990    -0.7470 nc         1 9ZV      -0.449400
      8 O1          -3.3370     4.5100    -0.8250 o          1 9ZV      -0.734500
      9 O2           2.8160    -2.2900    -1.4240 o          1 9ZV      -0.544100
     10 C1          -3.1780     2.4390     0.3160 c3         1 9ZV      -0.207400
     11 C3          -1.7330     0.2650    -0.0770 cc         1 9ZV       0.623800
     12 C4          -2.7760    -1.8290     0.3130 ca         1 9ZV       0.319000
     13 C5          -1.6340    -2.5630    -0.0230 ca         1 9ZV      -0.132000
     14 C6          -1.6460    -3.9750     0.0240 ca         1 9ZV      -0.034000
     15 C7          -2.8130    -4.6530     0.4110 ca         1 9ZV      -0.147000
     16 C10         -0.4710    -1.8010    -0.4110 cd         1 9ZV       0.127000
     17 C12          1.6370    -0.2010    -1.1220 cd         1 9ZV       0.282300
     18 C14          3.7990     0.8770    -0.3460 ca         1 9ZV      -0.081300
     19 C19          3.4920     1.8610     0.6150 ca         1 9ZV      -0.092000
     20 C18          4.3620     2.0940     1.6940 ca         1 9ZV      -0.116500
     21 C16          5.8540     0.3600     0.8660 ca         1 9ZV      -0.116500
     22 C15          4.9840     0.1270    -0.2140 ca         1 9ZV      -0.092000
     23 N3          -0.5190    -0.4040    -0.4400 na         1 9ZV      -0.017100
     24 C           -3.0810     3.9700     0.2400 c          1 9ZV       0.717000
     25 O           -2.6890     4.5710     1.2280 o          1 9ZV      -0.734500
     26 N           -2.8380    -0.4270     0.2910 nd         1 9ZV      -0.708000
     27 H1           3.3780     0.1370    -2.3350 hc         1 9ZV       0.075700
     28 H2           2.5170     1.5850    -1.9210 hc         1 9ZV       0.075700
     29 H3           6.2170     1.5240     2.6550 ha         1 9ZV       0.103000
     30 H4          -4.8300    -1.9590     0.9620 ha         1 9ZV       0.139000
     31 H5          -4.8700    -4.4450     1.0510 ha         1 9ZV       0.110000
     32 H7          -3.9200     2.0730    -0.4030 hc         1 9ZV       0.035700
     33 H8          -3.3660     2.1250     1.3500 hc         1 9ZV       0.035700
     34 H9          -1.5670     2.1390    -1.1040 hc         1 9ZV       0.083700
     35 H10         -1.0390     2.1870     0.5680 hc         1 9ZV       0.083700
     36 H11         -0.7580    -4.5490    -0.2370 ha         1 9ZV       0.142000
     37 H12         -2.8240    -5.7400     0.4480 ha         1 9ZV       0.111000
     38 H13          2.5780     2.4440     0.5260 ha         1 9ZV       0.123500
     39 H14          4.1200     2.8550     2.4330 ha         1 9ZV       0.108500
     40 H15          6.7670    -0.2220     0.9630 ha         1 9ZV       0.108500
     41 H16          5.2320    -0.6400    -0.9450 ha         1 9ZV       0.123500
     42 C2          -1.8170     1.7910    -0.0950 c3         1 9ZV      -0.111700
@<TRIPOS>BOND
     1     1    17 1   
     2     1    18 1   
     3     1    27 1   
     4     1    28 1   
     5     2    17 2   
     6     2    23 1   
     7     3    20 ar  
     8     3    21 ar  
     9     3    29 1   
    10     4     7 1   
    11     4     9 2   
    12     4    17 1   
    13     5     6 ar  
    14     5    12 ar  
    15     5    30 1   
    16     6    15 ar  
    17     6    31 1   
    18     7    16 2   
    19     8    24 1   
    20    10    24 1   
    21    10    32 1   
    22    10    33 1   
    23    10    42 1   
    24    11    23 1   
    25    11    26 2   
    26    11    42 1   
    27    12    13 ar  
    28    12    26 1   
    29    13    14 ar  
    30    13    16 1   
    31    14    15 ar  
    32    14    36 1   
    33    15    37 1   
    34    16    23 1   
    35    18    19 ar  
    36    18    22 ar  
    37    19    20 ar  
    38    19    38 1   
    39    20    39 1   
    40    21    22 ar  
    41    21    40 1   
    42    22    41 1   
    43    24    25 1   
    44    34    42 1   
    45    35    42 1   
@<TRIPOS>SUBSTRUCTURE
     1 9ZV         1 TEMP              0 ****  ****    0 ROOT
