@<TRIPOS>MOLECULE
9ZW
   53    56     1     0     0
SMALL
No Charge or Current Charge


@<TRIPOS>ATOM
      1 O            6.3970   -19.0750   -37.3340 o          1 9ZW      -0.496000
      2 C            5.4720   -18.6170   -36.6780 c          1 9ZW       0.676300
      3 C17          5.6070   -17.4400   -35.7690 cc         1 9ZW      -0.277400
      4 C18          7.0050   -16.8370   -35.7520 c3         1 9ZW       0.235000
      5 N            7.2120   -15.7160   -36.7110 n3         1 9ZW      -0.727600
      6 C22          6.3830   -14.4980   -36.4520 c6         1 9ZW       0.133300
      7 C21          6.7320   -13.3420   -37.4360 c6         1 9ZW       0.152100
      8 O3           6.6190   -13.7930   -38.8070 os         1 9ZW      -0.450000
      9 C20          7.4820   -14.9190   -39.0960 c6         1 9ZW       0.152100
     10 C19          7.1480   -16.1130   -38.1530 c6         1 9ZW       0.133300
     11 C15          4.5210   -17.0150   -35.0090 cd         1 9ZW       0.066600
     12 C16          4.6200   -15.8890   -33.9930 c3         1 9ZW      -0.069900
     13 C14          3.2290   -17.7050   -35.1830 ca         1 9ZW      -0.199800
     14 C1           3.1430   -18.7870   -36.0690 ca         1 9ZW       0.213100
     15 O1           4.2420   -19.2020   -36.7580 os         1 9ZW      -0.333200
     16 C13          2.0590   -17.3070   -34.4930 ca         1 9ZW      -0.022000
     17 C12          0.8500   -17.9930   -34.6920 ca         1 9ZW      -0.177000
     18 C3           0.7810   -19.0810   -35.5710 ca         1 9ZW       0.201100
     19 C2           1.9370   -19.4730   -36.2690 ca         1 9ZW      -0.227000
     20 O2          -0.4390   -19.7110   -35.7200 os         1 9ZW      -0.342100
     21 C4          -0.6030   -20.9430   -36.4480 c3         1 9ZW       0.223600
     22 C11         -2.1160   -21.2100   -36.5370 c3         1 9ZW      -0.087100
     23 C5           0.1320   -22.0770   -35.7270 ca         1 9ZW      -0.129300
     24 C10          0.0090   -22.2470   -34.3320 ca         1 9ZW      -0.093000
     25 C9           0.6890   -23.2890   -33.6790 ca         1 9ZW      -0.109000
     26 C8           1.4970   -24.1720   -34.4150 ca         1 9ZW      -0.100000
     27 C7           1.6220   -24.0120   -35.8050 ca         1 9ZW      -0.109000
     28 C6           0.9420   -22.9700   -36.4590 ca         1 9ZW      -0.093000
     29 H1           7.7480   -17.6220   -35.9500 h1         1 9ZW       0.066200
     30 H2           7.2460   -16.5010   -34.7360 h1         1 9ZW       0.066200
     31 H4           6.5410   -14.1380   -35.4250 h1         1 9ZW       0.043700
     32 H5           5.3140   -14.7310   -36.5580 h1         1 9ZW       0.043700
     33 H6           7.7580   -12.9910   -37.2540 h1         1 9ZW       0.048950
     34 H7           6.0480   -12.4960   -37.2780 h1         1 9ZW       0.048950
     35 H8           8.5300   -14.6160   -38.9610 h1         1 9ZW       0.048950
     36 H9           7.3440   -15.2190   -40.1440 h1         1 9ZW       0.048950
     37 H10          6.1420   -16.4790   -38.4060 h1         1 9ZW       0.043700
     38 H11          7.8540   -16.9300   -38.3580 h1         1 9ZW       0.043700
     39 H12          4.2350   -16.2110   -33.0190 hc         1 9ZW       0.054700
     40 H13          5.6390   -15.5410   -33.8110 hc         1 9ZW       0.054700
     41 H14          4.0330   -15.0220   -34.3160 hc         1 9ZW       0.054700
     42 H15          2.0660   -16.4660   -33.8040 ha         1 9ZW       0.119000
     43 H16         -0.0420   -17.6800   -34.1560 ha         1 9ZW       0.133000
     44 H17          1.9240   -20.3010   -36.9680 ha         1 9ZW       0.148000
     45 H18         -0.2170   -20.8360   -37.4710 h1         1 9ZW       0.053700
     46 H19         -2.3060   -22.1420   -37.0820 hc         1 9ZW       0.051700
     47 H20         -2.5580   -21.2980   -35.5380 hc         1 9ZW       0.051700
     48 H21         -2.6190   -20.3940   -37.0700 hc         1 9ZW       0.051700
     49 H22         -0.6130   -21.5680   -33.7510 ha         1 9ZW       0.117000
     50 H23          0.5900   -23.4120   -32.6030 ha         1 9ZW       0.115500
     51 H24          2.0230   -24.9780   -33.9100 ha         1 9ZW       0.115000
     52 H25          2.2460   -24.6960   -36.3760 ha         1 9ZW       0.115500
     53 H26          1.0460   -22.8580   -37.5360 ha         1 9ZW       0.117000
@<TRIPOS>BOND
     1     1     2 2   
     2     2     3 1   
     3     2    15 1   
     4     3     4 1   
     5     3    11 2   
     6     4     5 1   
     7     4    29 1   
     8     4    30 1   
     9     5     6 1   
    10     5    10 1   
    11     6     7 1   
    12     6    31 1   
    13     6    32 1   
    14     7     8 1   
    15     7    33 1   
    16     7    34 1   
    17     8     9 1   
    18     9    10 1   
    19     9    35 1   
    20     9    36 1   
    21    10    37 1   
    22    10    38 1   
    23    11    12 1   
    24    11    13 1   
    25    12    39 1   
    26    12    40 1   
    27    12    41 1   
    28    13    14 ar  
    29    13    16 ar  
    30    14    15 1   
    31    14    19 ar  
    32    16    17 ar  
    33    16    42 1   
    34    17    18 ar  
    35    17    43 1   
    36    18    19 ar  
    37    18    20 1   
    38    19    44 1   
    39    20    21 1   
    40    21    22 1   
    41    21    23 1   
    42    21    45 1   
    43    22    46 1   
    44    22    47 1   
    45    22    48 1   
    46    23    24 ar  
    47    23    28 ar  
    48    24    25 ar  
    49    24    49 1   
    50    25    26 ar  
    51    25    50 1   
    52    26    27 ar  
    53    26    51 1   
    54    27    28 ar  
    55    27    52 1   
    56    28    53 1   
@<TRIPOS>SUBSTRUCTURE
     1 9ZW         1 TEMP              0 ****  ****    0 ROOT
