@<TRIPOS>MOLECULE
9ZW
   53    56     1     0     0
SMALL
bcc


@<TRIPOS>ATOM
      1 O            6.3980   -19.1360   -37.0260 o          1 9ZW      -0.571500
      2 C            5.4860   -18.5950   -36.4480 c          1 9ZW       0.751800
      3 C17          5.5800   -17.3700   -35.6650 cc         1 9ZW      -0.277400
      4 C18          6.9320   -16.6810   -35.6850 c3         1 9ZW       0.235000
      5 N            7.1290   -15.6770   -36.7160 n3         1 9ZW      -0.727600
      6 C22          6.3030   -14.4940   -36.5740 c6         1 9ZW       0.133300
      7 C21          6.7380   -13.4440   -37.5810 c6         1 9ZW       0.128900
      8 O3           6.6880   -13.9330   -38.9020 os         1 9ZW      -0.403600
      9 C20          7.4910   -15.0840   -39.0390 c6         1 9ZW       0.128900
     10 C19          7.0700   -16.1770   -38.0760 c6         1 9ZW       0.133300
     11 C15          4.4960   -16.9340   -34.9650 cd         1 9ZW       0.066600
     12 C16          4.5250   -15.7580   -34.0430 c3         1 9ZW      -0.069900
     13 C14          3.2370   -17.6380   -35.0890 ca         1 9ZW      -0.199800
     14 C1           3.1770   -18.7670   -35.8990 ca         1 9ZW       0.213100
     15 O1           4.2810   -19.2130   -36.5310 os         1 9ZW      -0.333200
     16 C13          2.0460   -17.2500   -34.4560 ca         1 9ZW      -0.040000
     17 C12          0.8810   -17.9550   -34.6270 ca         1 9ZW      -0.195000
     18 C3           0.8550   -19.0920   -35.4510 ca         1 9ZW       0.201100
     19 C2           2.0150   -19.5030   -36.0930 ca         1 9ZW      -0.245000
     20 O2          -0.3330   -19.7030   -35.5530 os         1 9ZW      -0.318900
     21 C4          -0.4820   -20.8690   -36.3560 c3         1 9ZW       0.200400
     22 C11         -1.9760   -21.1060   -36.4900 c3         1 9ZW      -0.087100
     23 C5           0.2120   -22.0660   -35.7500 ca         1 9ZW      -0.129300
     24 C10          0.2700   -22.2500   -34.3720 ca         1 9ZW      -0.111000
     25 C9           0.8740   -23.3820   -33.8420 ca         1 9ZW      -0.127000
     26 C8           1.4160   -24.3470   -34.6820 ca         1 9ZW      -0.118000
     27 C7           1.3550   -24.1700   -36.0570 ca         1 9ZW      -0.127000
     28 C6           0.7590   -23.0340   -36.5860 ca         1 9ZW      -0.111000
     29 H1           7.7090   -17.4360   -35.8080 h1         1 9ZW       0.066200
     30 H2           7.1250   -16.2090   -34.7210 h1         1 9ZW       0.066200
     31 H4           6.4280   -14.0800   -35.5710 h1         1 9ZW       0.043700
     32 H5           5.2300   -14.7070   -36.7120 h1         1 9ZW       0.043700
     33 H6           7.7550   -13.1070   -37.3360 h1         1 9ZW       0.048950
     34 H7           6.0760   -12.5780   -37.5290 h1         1 9ZW       0.048950
     35 H8           8.5490   -14.8360   -38.8680 h1         1 9ZW       0.048950
     36 H9           7.3900   -15.4310   -40.0690 h1         1 9ZW       0.048950
     37 H10          6.0620   -16.5290   -38.3530 h1         1 9ZW       0.043700
     38 H11          7.7500   -17.0230   -38.1840 h1         1 9ZW       0.043700
     39 H12          4.1410   -16.0390   -33.0620 hc         1 9ZW       0.054700
     40 H13          5.5190   -15.3490   -33.9010 hc         1 9ZW       0.054700
     41 H14          3.8860   -14.9560   -34.4190 hc         1 9ZW       0.054700
     42 H15          2.0310   -16.3740   -33.8220 ha         1 9ZW       0.137000
     43 H16         -0.0280   -17.6390   -34.1320 ha         1 9ZW       0.151000
     44 H17          2.0530   -20.3760   -36.7290 ha         1 9ZW       0.166000
     45 H18         -0.0670   -20.6800   -37.3540 h1         1 9ZW       0.053700
     46 H19         -2.1510   -21.9810   -37.1140 hc         1 9ZW       0.051700
     47 H20         -2.4330   -21.2870   -35.5170 hc         1 9ZW       0.051700
     48 H21         -2.4670   -20.2530   -36.9580 hc         1 9ZW       0.051700
     49 H22         -0.1500   -21.5100   -33.7020 ha         1 9ZW       0.135000
     50 H23          0.9200   -23.5120   -32.7680 ha         1 9ZW       0.133500
     51 H24          1.8860   -25.2290   -34.2660 ha         1 9ZW       0.133000
     52 H25          1.7780   -24.9140   -36.7200 ha         1 9ZW       0.133500
     53 H26          0.7250   -22.8950   -37.6610 ha         1 9ZW       0.135000
@<TRIPOS>BOND
     1     1     2 2   
     2     2     3 1   
     3     2    15 1   
     4     3     4 1   
     5     3    11 2   
     6     4     5 1   
     7     4    29 1   
     8     4    30 1   
     9     5     6 1   
    10     5    10 1   
    11     6     7 1   
    12     6    31 1   
    13     6    32 1   
    14     7     8 1   
    15     7    33 1   
    16     7    34 1   
    17     8     9 1   
    18     9    10 1   
    19     9    35 1   
    20     9    36 1   
    21    10    37 1   
    22    10    38 1   
    23    11    12 1   
    24    11    13 1   
    25    12    39 1   
    26    12    40 1   
    27    12    41 1   
    28    13    14 ar  
    29    13    16 ar  
    30    14    15 1   
    31    14    19 ar  
    32    16    17 ar  
    33    16    42 1   
    34    17    18 ar  
    35    17    43 1   
    36    18    19 ar  
    37    18    20 1   
    38    19    44 1   
    39    20    21 1   
    40    21    22 1   
    41    21    23 1   
    42    21    45 1   
    43    22    46 1   
    44    22    47 1   
    45    22    48 1   
    46    23    24 ar  
    47    23    28 ar  
    48    24    25 ar  
    49    24    49 1   
    50    25    26 ar  
    51    25    50 1   
    52    26    27 ar  
    53    26    51 1   
    54    27    28 ar  
    55    27    52 1   
    56    28    53 1   
@<TRIPOS>SUBSTRUCTURE
     1 9ZW         1 TEMP              0 ****  ****    0 ROOT
