@<TRIPOS>MOLECULE
9ZX
   56    59     1     0     0
SMALL
bcc


@<TRIPOS>ATOM
      1 O           -6.8440   -17.6340    37.8790 o          1 9ZX      -0.553500
      2 C           -6.0040   -17.5620    37.0160 c          1 9ZX       0.754800
      3 O1          -4.9660   -18.4330    37.1100 os         1 9ZX      -0.338200
      4 C1          -3.9380   -18.4510    36.2390 ca         1 9ZX       0.216100
      5 C2          -2.9510   -19.4010    36.4700 ca         1 9ZX      -0.260000
      6 C3          -1.8610   -19.4510    35.6110 ca         1 9ZX       0.201100
      7 O2          -0.8520   -20.3180    35.7310 os         1 9ZX      -0.309900
      8 C4          -0.9010   -21.3080    36.7470 c3         1 9ZX       0.142400
      9 C5           0.3370   -22.1810    36.6180 c3         1 9ZX      -0.017400
     10 C7           0.4500   -22.7910    35.2410 ca         1 9ZX      -0.072300
     11 C8           1.5260   -22.4780    34.4170 ca         1 9ZX      -0.119000
     12 C9           1.6480   -23.0410    33.1520 ca         1 9ZX      -0.127500
     13 C10          0.6860   -23.9270    32.6890 ca         1 9ZX      -0.127000
     14 C11         -0.3960   -24.2440    33.5010 ca         1 9ZX      -0.127500
     15 C12         -0.5110   -23.6820    34.7650 ca         1 9ZX      -0.119000
     16 C6           0.3220   -23.2430    37.7170 c3         1 9ZX      -0.086100
     17 C13         -1.7780   -18.5480    34.5380 ca         1 9ZX      -0.193000
     18 C14         -2.7740   -17.6270    34.3320 ca         1 9ZX      -0.039000
     19 C15         -3.8910   -17.5510    35.1800 ca         1 9ZX      -0.199800
     20 C16         -4.9810   -16.6150    35.0110 cc         1 9ZX       0.053600
     21 C17         -4.9100   -15.6930    33.8350 c3         1 9ZX      -0.067900
     22 C18         -6.0070   -16.6220    35.9030 cd         1 9ZX      -0.228400
     23 C19         -7.2200   -15.7370    35.8420 c3         1 9ZX       0.227000
     24 N           -8.3820   -16.4690    35.3670 n3         1 9ZX      -0.710600
     25 C20         -8.3150   -16.7750    33.9500 c6         1 9ZX       0.127800
     26 C21         -9.5260   -17.5930    33.5430 c6         1 9ZX       0.129900
     27 O3         -10.7290   -16.9220    33.8420 os         1 9ZX      -0.405600
     28 C22        -10.8010   -16.6110    35.2150 c6         1 9ZX       0.129900
     29 C23         -9.6190   -15.7710    35.6610 c6         1 9ZX       0.127800
     30 H1          -3.0580   -20.0710    37.3120 ha         1 9ZX       0.160000
     31 H2          -0.9220   -20.8390    37.7370 h1         1 9ZX       0.042700
     32 H3          -1.8090   -21.9140    36.6440 h1         1 9ZX       0.042700
     33 H4           1.2110   -21.5410    36.7780 hc         1 9ZX       0.064700
     34 H5           2.2830   -21.7870    34.7690 ha         1 9ZX       0.127500
     35 H6           2.4950   -22.7840    32.5280 ha         1 9ZX       0.130000
     36 H7           0.7760   -24.3670    31.7050 ha         1 9ZX       0.130000
     37 H8          -1.1530   -24.9340    33.1500 ha         1 9ZX       0.130000
     38 H9          -1.3630   -23.9470    35.3820 ha         1 9ZX       0.127500
     39 H10          0.2920   -22.7820    38.7050 hc         1 9ZX       0.041367
     40 H11         -0.5460   -23.8990    37.6280 hc         1 9ZX       0.041367
     41 H12          1.2160   -23.8630    37.6640 hc         1 9ZX       0.041367
     42 H13         -0.9240   -18.5910    33.8750 ha         1 9ZX       0.153000
     43 H14         -2.6860   -16.9490    33.4940 ha         1 9ZX       0.137000
     44 H15         -5.7640   -15.0300    33.7560 hc         1 9ZX       0.053700
     45 H16         -4.0120   -15.0750    33.8890 hc         1 9ZX       0.053700
     46 H17         -4.8490   -16.2670    32.9090 hc         1 9ZX       0.053700
     47 H18         -7.0230   -14.8400    35.2400 h1         1 9ZX       0.045700
     48 H19         -7.4410   -15.3770    36.8480 h1         1 9ZX       0.045700
     49 H21         -7.4150   -17.3560    33.7340 h1         1 9ZX       0.039950
     50 H22         -8.2670   -15.8570    33.3380 h1         1 9ZX       0.039950
     51 H23         -9.4910   -18.5670    34.0520 h1         1 9ZX       0.052200
     52 H24         -9.5110   -17.7740    32.4670 h1         1 9ZX       0.052200
     53 H25        -11.7330   -16.0690    35.3800 h1         1 9ZX       0.052200
     54 H26        -10.8330   -17.5320    35.8160 h1         1 9ZX       0.052200
     55 H27         -9.6610   -14.7830    35.1720 h1         1 9ZX       0.039950
     56 H28         -9.6940   -15.6020    36.7390 h1         1 9ZX       0.039950
@<TRIPOS>BOND
     1     1     2 2   
     2     2     3 1   
     3     2    22 1   
     4     3     4 1   
     5     4     5 ar  
     6     4    19 ar  
     7     5     6 ar  
     8     5    30 1   
     9     6     7 1   
    10     6    17 ar  
    11     7     8 1   
    12     8     9 1   
    13     8    31 1   
    14     8    32 1   
    15     9    10 1   
    16     9    16 1   
    17     9    33 1   
    18    10    11 ar  
    19    10    15 ar  
    20    11    12 ar  
    21    11    34 1   
    22    12    13 ar  
    23    12    35 1   
    24    13    14 ar  
    25    13    36 1   
    26    14    15 ar  
    27    14    37 1   
    28    15    38 1   
    29    16    39 1   
    30    16    40 1   
    31    16    41 1   
    32    17    18 ar  
    33    17    42 1   
    34    18    19 ar  
    35    18    43 1   
    36    19    20 1   
    37    20    21 1   
    38    20    22 2   
    39    21    44 1   
    40    21    45 1   
    41    21    46 1   
    42    22    23 1   
    43    23    24 1   
    44    23    47 1   
    45    23    48 1   
    46    24    25 1   
    47    24    29 1   
    48    25    26 1   
    49    25    49 1   
    50    25    50 1   
    51    26    27 1   
    52    26    51 1   
    53    26    52 1   
    54    27    28 1   
    55    28    29 1   
    56    28    53 1   
    57    28    54 1   
    58    29    55 1   
    59    29    56 1   
@<TRIPOS>SUBSTRUCTURE
     1 9ZX         1 TEMP              0 ****  ****    0 ROOT
