@<TRIPOS>MOLECULE
9ZX
   56    59     1     0     0
SMALL
No Charge or Current Charge


@<TRIPOS>ATOM
      1 O           -6.9590   -17.7520    37.9740 o          1 9ZX      -0.478000
      2 C           -6.0850   -17.6890    37.1190 c          1 9ZX       0.679300
      3 O1          -5.0270   -18.5430    37.1760 os         1 9ZX      -0.338200
      4 C1          -3.9940   -18.5260    36.2950 ca         1 9ZX       0.216100
      5 C2          -2.9600   -19.4540    36.4790 ca         1 9ZX      -0.242000
      6 C3          -1.8640   -19.4690    35.5990 ca         1 9ZX       0.201100
      7 O2          -0.8170   -20.3560    35.7250 os         1 9ZX      -0.333100
      8 C4          -0.7770   -21.3520    36.7630 c3         1 9ZX       0.165600
      9 C5           0.5180   -22.1820    36.5880 c3         1 9ZX      -0.017400
     10 C7           0.5820   -22.8710    35.2200 ca         1 9ZX      -0.072300
     11 C8           1.6280   -22.5700    34.3240 ca         1 9ZX      -0.101000
     12 C9           1.6930   -23.1970    33.0680 ca         1 9ZX      -0.109500
     13 C10          0.7140   -24.1320    32.6960 ca         1 9ZX      -0.109000
     14 C11         -0.3320   -24.4400    33.5820 ca         1 9ZX      -0.109500
     15 C12         -0.3980   -23.8130    34.8380 ca         1 9ZX      -0.101000
     16 C6           0.6930   -23.2040    37.7340 c3         1 9ZX      -0.086100
     17 C13         -1.8210   -18.5470    34.5470 ca         1 9ZX      -0.175000
     18 C14         -2.8590   -17.6180    34.3650 ca         1 9ZX      -0.021000
     19 C15         -3.9710   -17.5970    35.2420 ca         1 9ZX      -0.199800
     20 C16         -5.0670   -16.6290    35.0570 cc         1 9ZX       0.053600
     21 C17         -5.0350   -15.6480    33.9000 c3         1 9ZX      -0.067900
     22 C18         -6.0920   -16.6960    36.0020 cd         1 9ZX      -0.228400
     23 C19         -7.3110   -15.7940    36.0180 c3         1 9ZX       0.227000
     24 N           -8.5070   -16.4170    35.4010 n3         1 9ZX      -0.710600
     25 C20         -8.3440   -16.7650    33.9540 c6         1 9ZX       0.127800
     26 C21         -9.6250   -17.4380    33.3760 c6         1 9ZX       0.153100
     27 O3         -10.7800   -16.5940    33.5970 os         1 9ZX      -0.452000
     28 C22        -11.0000   -16.3080    34.9990 c6         1 9ZX       0.153100
     29 C23         -9.7490   -15.6120    35.6140 c6         1 9ZX       0.127800
     30 H1          -3.0290   -20.1490    37.3090 ha         1 9ZX       0.142000
     31 H2          -0.7720   -20.8750    37.7520 h1         1 9ZX       0.042700
     32 H3          -1.6520   -22.0130    36.7010 h1         1 9ZX       0.042700
     33 H4           1.3540   -21.4760    36.6710 hc         1 9ZX       0.064700
     34 H5           2.3930   -21.8470    34.5990 ha         1 9ZX       0.109500
     35 H6           2.5040   -22.9570    32.3830 ha         1 9ZX       0.112000
     36 H7           0.7650   -24.6170    31.7240 ha         1 9ZX       0.112000
     37 H8          -1.0910   -25.1640    33.2960 ha         1 9ZX       0.112000
     38 H9          -1.2130   -24.0620    35.5130 ha         1 9ZX       0.109500
     39 H10          0.7290   -22.6950    38.7040 hc         1 9ZX       0.041367
     40 H11         -0.1360   -23.9210    37.7550 hc         1 9ZX       0.041367
     41 H12          1.6280   -23.7630    37.6090 hc         1 9ZX       0.041367
     42 H13         -0.9750   -18.5520    33.8650 ha         1 9ZX       0.135000
     43 H14         -2.7800   -16.9200    33.5360 ha         1 9ZX       0.119000
     44 H15         -5.9400   -15.0430    33.8060 hc         1 9ZX       0.053700
     45 H16         -4.1920   -14.9550    34.0050 hc         1 9ZX       0.053700
     46 H17         -4.9210   -16.1790    32.9470 hc         1 9ZX       0.053700
     47 H18         -7.0870   -14.8370    35.5320 h1         1 9ZX       0.045700
     48 H19         -7.5350   -15.5290    37.0610 h1         1 9ZX       0.045700
     49 H21         -7.4990   -17.4540    33.8120 h1         1 9ZX       0.039950
     50 H22         -8.1300   -15.8610    33.3650 h1         1 9ZX       0.039950
     51 H23         -9.7880   -18.4120    33.8600 h1         1 9ZX       0.052200
     52 H24         -9.5040   -17.6080    32.2970 h1         1 9ZX       0.052200
     53 H25        -11.8790   -15.6560    35.1010 h1         1 9ZX       0.052200
     54 H26        -11.2070   -17.2470    35.5330 h1         1 9ZX       0.052200
     55 H27         -9.6410   -14.6170    35.1580 h1         1 9ZX       0.039950
     56 H28         -9.9250   -15.4580    36.6880 h1         1 9ZX       0.039950
@<TRIPOS>BOND
     1     1     2 2   
     2     2     3 1   
     3     2    22 1   
     4     3     4 1   
     5     4     5 ar  
     6     4    19 ar  
     7     5     6 ar  
     8     5    30 1   
     9     6     7 1   
    10     6    17 ar  
    11     7     8 1   
    12     8     9 1   
    13     8    31 1   
    14     8    32 1   
    15     9    10 1   
    16     9    16 1   
    17     9    33 1   
    18    10    11 ar  
    19    10    15 ar  
    20    11    12 ar  
    21    11    34 1   
    22    12    13 ar  
    23    12    35 1   
    24    13    14 ar  
    25    13    36 1   
    26    14    15 ar  
    27    14    37 1   
    28    15    38 1   
    29    16    39 1   
    30    16    40 1   
    31    16    41 1   
    32    17    18 ar  
    33    17    42 1   
    34    18    19 ar  
    35    18    43 1   
    36    19    20 1   
    37    20    21 1   
    38    20    22 2   
    39    21    44 1   
    40    21    45 1   
    41    21    46 1   
    42    22    23 1   
    43    23    24 1   
    44    23    47 1   
    45    23    48 1   
    46    24    25 1   
    47    24    29 1   
    48    25    26 1   
    49    25    49 1   
    50    25    50 1   
    51    26    27 1   
    52    26    51 1   
    53    26    52 1   
    54    27    28 1   
    55    28    29 1   
    56    28    53 1   
    57    28    54 1   
    58    29    55 1   
    59    29    56 1   
@<TRIPOS>SUBSTRUCTURE
     1 9ZX         1 TEMP              0 ****  ****    0 ROOT
