@<TRIPOS>MOLECULE
9ZY
   39    42     1     0     0
SMALL
abcg2


@<TRIPOS>ATOM
      1 O3          -4.8580     2.6320     0.2560 o          1 9ZY      -0.697000
      2 C4           0.9550    -1.4160     0.0340 cc         1 9ZY       0.125100
      3 C5           2.2630    -0.9860     0.0840 cd         1 9ZY      -0.288800
      4 C6           2.1530     0.4180    -0.1170 cd         1 9ZY       0.344500
      5 N1           0.1600    -0.3650    -0.1940 na         1 9ZY       0.249000
      6 C7          -1.2490    -0.3100    -0.2810 ca         1 9ZY      -0.042200
      7 C8          -1.9190     0.7320     0.3400 ca         1 9ZY      -0.059000
      8 C9          -3.3010     0.8620     0.2460 ca         1 9ZY      -0.110600
      9 C10         -3.9910    -0.1290    -0.4490 ca         1 9ZY       0.154000
     10 C11         -3.3290    -1.1960    -1.0420 ca         1 9ZY      -0.129000
     11 C12         -1.9500    -1.2810    -0.9830 ca         1 9ZY      -0.121000
     12 C13         -3.9510     2.0830     0.8980 c          1 9ZY       0.721600
     13 C14          3.2030     1.4440    -0.1670 ca         1 9ZY      -0.112500
     14 C15          3.2490     2.3450    -1.2290 ca         1 9ZY      -0.084500
     15 O2          -3.4740     2.4190     1.9960 o          1 9ZY      -0.697000
     16 CL          -5.7210    -0.1190    -0.5590 cl         1 9ZY      -0.202000
     17 O1           0.5280    -2.6560     0.1810 os         1 9ZY      -0.311200
     18 C3           1.4660    -3.6640     0.3700 c          1 9ZY       0.688300
     19 O            1.0250    -4.7730     0.5130 o          1 9ZY      -0.493000
     20 C2           2.8520    -3.2700     0.3610 cc         1 9ZY      -0.406200
     21 N            0.8970     0.7640    -0.2800 nc         1 9ZY      -0.464800
     22 C1           3.2770    -1.9840     0.2270 cd         1 9ZY       0.125600
     23 C            4.7290    -1.6490     0.2120 c3         1 9ZY      -0.063900
     24 C19          4.1360     1.5570     0.8620 ca         1 9ZY      -0.084500
     25 C18          5.1100     2.5450     0.8210 ca         1 9ZY      -0.119000
     26 C17          5.1570     3.4320    -0.2460 ca         1 9ZY      -0.110000
     27 C16          4.2240     3.3320    -1.2700 ca         1 9ZY      -0.119000
     28 H1          -1.3610     1.4700     0.9000 ha         1 9ZY       0.151000
     29 H2          -3.8880    -1.9580    -1.5680 ha         1 9ZY       0.112000
     30 H3          -1.4460    -2.0910    -1.4910 ha         1 9ZY       0.112000
     31 H4           2.5280     2.2650    -2.0320 ha         1 9ZY       0.122500
     32 H6           3.5650    -4.0770     0.4620 ha         1 9ZY       0.203000
     33 H7           5.0220    -1.1900     1.1570 hc         1 9ZY       0.052367
     34 H8           5.3350    -2.5410     0.0710 hc         1 9ZY       0.052367
     35 H9           4.9610    -0.9350    -0.5770 hc         1 9ZY       0.052367
     36 H10          4.0950     0.8810     1.7070 ha         1 9ZY       0.122500
     37 H11          5.8270     2.6250     1.6270 ha         1 9ZY       0.109000
     38 H12          5.9180     4.2010    -0.2790 ha         1 9ZY       0.105000
     39 H13          4.2560     4.0200    -2.1040 ha         1 9ZY       0.109000
@<TRIPOS>BOND
     1     1    12 1   
     2     2     3 2   
     3     2     5 1   
     4     2    17 1   
     5     3     4 1   
     6     3    22 1   
     7     4    13 1   
     8     4    21 2   
     9     5     6 1   
    10     5    21 1   
    11     6     7 ar  
    12     6    11 ar  
    13     7     8 ar  
    14     7    28 1   
    15     8     9 ar  
    16     8    12 1   
    17     9    10 ar  
    18     9    16 1   
    19    10    11 ar  
    20    10    29 1   
    21    11    30 1   
    22    12    15 1   
    23    13    14 ar  
    24    13    24 ar  
    25    14    27 ar  
    26    14    31 1   
    27    17    18 1   
    28    18    19 2   
    29    18    20 1   
    30    20    22 2   
    31    20    32 1   
    32    22    23 1   
    33    23    33 1   
    34    23    34 1   
    35    23    35 1   
    36    24    25 ar  
    37    24    36 1   
    38    25    26 ar  
    39    25    37 1   
    40    26    27 ar  
    41    26    38 1   
    42    27    39 1   
@<TRIPOS>SUBSTRUCTURE
     1 9ZY         1 TEMP              0 ****  ****    0 ROOT
