@<TRIPOS>MOLECULE
9ZY
   39    42     1     0     0
SMALL
No Charge or Current Charge


@<TRIPOS>ATOM
      1 O3          -4.8610     2.6800     0.3460 o          1 9ZY      -0.697000
      2 C4           0.8830    -1.3740     0.0770 cc         1 9ZY       0.125100
      3 C5           2.1670    -0.9560     0.0670 cd         1 9ZY      -0.288800
      4 C6           2.1100     0.4610    -0.1170 cd         1 9ZY       0.344500
      5 N1           0.1190    -0.2410    -0.1080 na         1 9ZY       0.249000
      6 C7          -1.2750    -0.2180    -0.2290 ca         1 9ZY      -0.042200
      7 C8          -2.0280     0.7810     0.4250 ca         1 9ZY      -0.059000
      8 C9          -3.4340     0.8210     0.3090 ca         1 9ZY      -0.110600
      9 C10         -4.0920    -0.1590    -0.4620 ca         1 9ZY       0.154000
     10 C11         -3.3470    -1.1540    -1.1170 ca         1 9ZY      -0.129000
     11 C12         -1.9460    -1.1840    -1.0060 ca         1 9ZY      -0.121000
     12 C13         -4.2010     1.9000     1.0170 c          1 9ZY       0.721600
     13 C14          3.2340     1.4050    -0.1810 ca         1 9ZY      -0.112500
     14 C15          3.4410     2.1870    -1.3350 ca         1 9ZY      -0.084500
     15 O2          -4.0500     2.0050     2.2260 o          1 9ZY      -0.697000
     16 Cl          -5.8500    -0.2000    -0.6060 cl         1 9ZY      -0.202000
     17 O1           0.5360    -2.6800     0.2520 os         1 9ZY      -0.311200
     18 C3           1.4920    -3.6430     0.4090 c          1 9ZY       0.688300
     19 O            1.2010    -4.8190     0.5630 o          1 9ZY      -0.493000
     20 C2           2.8900    -3.1800     0.3660 cc         1 9ZY      -0.406200
     21 N            0.8630     0.9140    -0.2530 nc         1 9ZY      -0.464800
     22 C1           3.2730    -1.8660     0.1950 cd         1 9ZY       0.125600
     23 C            4.7230    -1.4620     0.1260 c3         1 9ZY      -0.063900
     24 C19          4.0810     1.5790     0.9320 ca         1 9ZY      -0.084500
     25 C18          5.1450     2.4970     0.8770 ca         1 9ZY      -0.119000
     26 C17          5.3590     3.2580    -0.2840 ca         1 9ZY      -0.110000
     27 C16          4.5050     3.1050    -1.3890 ca         1 9ZY      -0.119000
     28 H1          -1.5210     1.5330     1.0270 ha         1 9ZY       0.151000
     29 H2          -3.8580    -1.9070    -1.7110 ha         1 9ZY       0.112000
     30 H3          -1.3870    -1.9580    -1.5280 ha         1 9ZY       0.112000
     31 H4           2.7810     2.0760    -2.1930 ha         1 9ZY       0.122500
     32 H6           3.6230    -3.9690     0.4760 ha         1 9ZY       0.203000
     33 H7           5.0600    -1.0410     1.0790 hc         1 9ZY       0.052367
     34 H8           5.3630    -2.3240    -0.0960 hc         1 9ZY       0.052367
     35 H9           4.8960    -0.7230    -0.6640 hc         1 9ZY       0.052367
     36 H10          3.9130     1.0040     1.8400 ha         1 9ZY       0.122500
     37 H11          5.7990     2.6220     1.7370 ha         1 9ZY       0.109000
     38 H12          6.1810     3.9690    -0.3260 ha         1 9ZY       0.105000
     39 H13          4.6640     3.6990    -2.2860 ha         1 9ZY       0.109000
@<TRIPOS>BOND
     1     1    12 1   
     2     2     3 2   
     3     2     5 1   
     4     2    17 1   
     5     3     4 1   
     6     3    22 1   
     7     4    13 1   
     8     4    21 2   
     9     5     6 1   
    10     5    21 1   
    11     6     7 ar  
    12     6    11 ar  
    13     7     8 ar  
    14     7    28 1   
    15     8     9 ar  
    16     8    12 1   
    17     9    10 ar  
    18     9    16 1   
    19    10    11 ar  
    20    10    29 1   
    21    11    30 1   
    22    12    15 1   
    23    13    14 ar  
    24    13    24 ar  
    25    14    27 ar  
    26    14    31 1   
    27    17    18 1   
    28    18    19 2   
    29    18    20 1   
    30    20    22 2   
    31    20    32 1   
    32    22    23 1   
    33    23    33 1   
    34    23    34 1   
    35    23    35 1   
    36    24    25 ar  
    37    24    36 1   
    38    25    26 ar  
    39    25    37 1   
    40    26    27 ar  
    41    26    38 1   
    42    27    39 1   
@<TRIPOS>SUBSTRUCTURE
     1 9ZY         1 TEMP              0 ****  ****    0 ROOT
