@<TRIPOS>MOLECULE
9ZZ
   36    39     1     0     0
SMALL
abcg2


@<TRIPOS>ATOM
      1 O3          -0.2090    -4.0270     3.2060 o          1 9ZZ      -0.681500
      2 C4           1.1510     0.5550    -0.0070 ca         1 9ZZ       0.289000
      3 C5           2.3410     1.2650     0.0720 ca         1 9ZZ       0.092000
      4 O4          -0.1270    -2.0030     2.2650 o          1 9ZZ      -0.681500
      5 C6           3.5570     0.5850     0.1410 ca         1 9ZZ       0.248100
      6 C7           3.5410    -0.8250     0.1220 ca         1 9ZZ       0.055000
      7 C8           2.3570    -1.5160     0.0520 ca         1 9ZZ       0.068000
      8 C9           1.1350    -0.8410    -0.0140 ca         1 9ZZ      -0.153000
      9 C10         -2.2890     1.4570    -0.3330 cc         1 9ZZ      -0.168400
     10 C11         -3.6190     0.9080    -0.4820 c          1 9ZZ       0.614500
     11 C12         -0.1280    -1.5180    -0.0700 cc         1 9ZZ       0.267000
     12 C13         -0.1630    -2.9880    -0.2470 ca         1 9ZZ      -0.089000
     13 C14         -0.1730    -3.4950    -1.5440 ca         1 9ZZ      -0.116000
     14 C15         -0.1940    -4.8670    -1.7490 ca         1 9ZZ      -0.132000
     15 C           -3.6630    -0.5560    -0.4790 cc         1 9ZZ      -0.101400
     16 O            0.0140     1.2600    -0.0800 os         1 9ZZ      -0.269000
     17 C1          -2.5680    -1.3330    -0.3580 cd         1 9ZZ      -0.009200
     18 C16         -0.2070    -5.7310    -0.6610 ca         1 9ZZ      -0.122000
     19 C17         -0.2000    -5.2200     0.6280 ca         1 9ZZ      -0.083000
     20 C18         -0.1760    -3.8480     0.8470 ca         1 9ZZ      -0.115600
     21 C19         -0.1720    -3.2530     2.2390 c          1 9ZZ       0.706600
     22 C2          -1.2700    -0.7570    -0.2270 cd         1 9ZZ      -0.218800
     23 C3          -1.1830     0.6660    -0.2120 cd         1 9ZZ       0.295000
     24 I           -5.5660    -1.4110    -0.6760 i          1 9ZZ      -0.176800
     25 I3          -2.1320     3.5380    -0.3260 i          1 9ZZ      -0.154800
     26 O1           4.6560     1.3170     0.2150 oh         1 9ZZ      -0.511100
     27 O2          -4.6240     1.5980    -0.6040 o          1 9ZZ      -0.556100
     28 H1           2.3570    -2.5970     0.0460 ha         1 9ZZ       0.152000
     29 H2          -0.1640    -2.8190    -2.3900 ha         1 9ZZ       0.105000
     30 H3          -0.2010    -5.2590    -2.7580 ha         1 9ZZ       0.099000
     31 H           -2.6480    -2.4120    -0.3540 ha         1 9ZZ       0.206000
     32 H4          -0.2250    -6.8010    -0.8200 ha         1 9ZZ       0.099000
     33 H5          -0.2160    -5.8890     1.4780 ha         1 9ZZ       0.137000
     34 HO1          5.4620     0.7830     0.2530 ho         1 9ZZ       0.484000
     35 I1           2.3240     3.3500     0.0860 i          1 9ZZ      -0.258000
     36 I2           5.3430    -1.9010     0.2050 i          1 9ZZ      -0.319000
@<TRIPOS>BOND
     1     1    21 1   
     2     2     3 ar  
     3     2     8 ar  
     4     2    16 1   
     5     3     5 ar  
     6     3    35 1   
     7     4    21 1   
     8     5     6 ar  
     9     5    26 1   
    10     6     7 ar  
    11     6    36 1   
    12     7     8 ar  
    13     7    28 1   
    14     8    11 1   
    15     9    10 1   
    16     9    23 2   
    17     9    25 1   
    18    10    15 1   
    19    10    27 2   
    20    11    12 1   
    21    11    22 2   
    22    12    13 ar  
    23    12    20 ar  
    24    13    14 ar  
    25    13    29 1   
    26    14    18 ar  
    27    14    30 1   
    28    15    17 2   
    29    15    24 1   
    30    16    23 1   
    31    17    22 1   
    32    17    31 1   
    33    18    19 ar  
    34    18    32 1   
    35    19    20 ar  
    36    19    33 1   
    37    20    21 1   
    38    22    23 1   
    39    26    34 1   
@<TRIPOS>SUBSTRUCTURE
     1 9ZZ         1 TEMP              0 ****  ****    0 ROOT
