@<TRIPOS>MOLECULE
9ZZ
   36    39     1     0     0
SMALL
No Charge or Current Charge


@<TRIPOS>ATOM
      1 O3          -1.4320    -3.6160     2.9090 o          1 9ZZ      -0.681500
      2 C4           1.2070     0.6400    -0.0550 ca         1 9ZZ       0.289000
      3 C5           2.4120     1.3630     0.0440 ca         1 9ZZ       0.092000
      4 O4           0.2220    -2.2800     2.5660 o          1 9ZZ      -0.681500
      5 C6           3.6400     0.6710     0.0620 ca         1 9ZZ       0.248100
      6 C7           3.6500    -0.7360    -0.0180 ca         1 9ZZ       0.055000
      7 C8           2.4430    -1.4480    -0.1160 ca         1 9ZZ       0.068000
      8 C9           1.2090    -0.7620    -0.1390 ca         1 9ZZ      -0.153000
      9 C10         -2.3240     1.4270    -0.1810 cc         1 9ZZ      -0.168400
     10 C11         -3.6510     0.7870    -0.2860 c          1 9ZZ       0.614500
     11 C12         -0.0570    -1.4900    -0.2300 cc         1 9ZZ       0.267000
     12 C13         -0.1170    -2.9510    -0.3220 ca         1 9ZZ      -0.089000
     13 C14          0.0570    -3.5570    -1.5820 ca         1 9ZZ      -0.116000
     14 C15         -0.0170    -4.9520    -1.7190 ca         1 9ZZ      -0.132000
     15 C           -3.6650    -0.6940    -0.3820 cc         1 9ZZ      -0.101400
     16 O            0.0170     1.3160    -0.0670 os         1 9ZZ      -0.269000
     17 C1          -2.5130    -1.4510    -0.3670 cd         1 9ZZ      -0.009200
     18 C16         -0.2670    -5.7520    -0.5960 ca         1 9ZZ      -0.122000
     19 C17         -0.4400    -5.1600     0.6660 ca         1 9ZZ      -0.083000
     20 C18         -0.3600    -3.7580     0.8220 ca         1 9ZZ      -0.115600
     21 C19         -0.5460    -3.1580     2.2020 c          1 9ZZ       0.706600
     22 C2          -1.2460    -0.7640    -0.2540 cd         1 9ZZ      -0.218800
     23 C3          -1.1780     0.6690    -0.1650 cd         1 9ZZ       0.295000
     24 I           -5.5570    -1.6750    -0.5440 i          1 9ZZ      -0.176800
     25 I3          -2.2440     3.5680    -0.0500 i          1 9ZZ      -0.154800
     26 O1           4.8240     1.3580     0.1580 oh         1 9ZZ      -0.511100
     27 O2          -4.6860     1.4470    -0.2960 o          1 9ZZ      -0.556100
     28 H1           2.4790    -2.5340    -0.1710 ha         1 9ZZ       0.152000
     29 H2           0.2430    -2.9420    -2.4600 ha         1 9ZZ       0.105000
     30 H3           0.1170    -5.4110    -2.6960 ha         1 9ZZ       0.099000
     31 H           -2.5940    -2.5330    -0.4420 ha         1 9ZZ       0.206000
     32 H4          -0.3270    -6.8330    -0.7010 ha         1 9ZZ       0.099000
     33 H5          -0.6300    -5.7930     1.5310 ha         1 9ZZ       0.137000
     34 HO1          5.5540     0.7000     0.1560 ho         1 9ZZ       0.484000
     35 I1           2.3660     3.5490     0.1710 i          1 9ZZ      -0.258000
     36 I2           5.5330    -1.8280     0.0130 i          1 9ZZ      -0.319000
@<TRIPOS>BOND
     1     1    21 1   
     2     2     3 ar  
     3     2     8 ar  
     4     2    16 1   
     5     3     5 ar  
     6     3    35 1   
     7     4    21 1   
     8     5     6 ar  
     9     5    26 1   
    10     6     7 ar  
    11     6    36 1   
    12     7     8 ar  
    13     7    28 1   
    14     8    11 1   
    15     9    10 1   
    16     9    23 2   
    17     9    25 1   
    18    10    15 1   
    19    10    27 2   
    20    11    12 1   
    21    11    22 2   
    22    12    13 ar  
    23    12    20 ar  
    24    13    14 ar  
    25    13    29 1   
    26    14    18 ar  
    27    14    30 1   
    28    15    17 2   
    29    15    24 1   
    30    16    23 1   
    31    17    22 1   
    32    17    31 1   
    33    18    19 ar  
    34    18    32 1   
    35    19    20 ar  
    36    19    33 1   
    37    20    21 1   
    38    22    23 1   
    39    26    34 1   
@<TRIPOS>SUBSTRUCTURE
     1 9ZZ         1 TEMP              0 ****  ****    0 ROOT
