@<TRIPOS>MOLECULE
P01
   52    54     1     0     0
SMALL
bcc


@<TRIPOS>ATOM
      1 CL1          5.1170    -4.2200     0.5950 cl         1 P01      -0.115400
      2 C5A          4.1760    -2.7640     0.5240 ca         1 P01       0.060400
      3 C6A          2.8000    -2.8650     0.4760 ca         1 P01      -0.187000
      4 C1A          2.0180    -1.7050     0.4180 ca         1 P01       0.187600
      5 C2A          2.6530    -0.4600     0.4110 ca         1 P01      -0.159000
      6 C3A          4.0370    -0.3970     0.4600 ca         1 P01      -0.097000
      7 C4A          4.8230    -1.5380     0.5160 ca         1 P01      -0.154000
      8 N6           0.6440    -1.8970     0.3720 nu         1 P01      -0.730300
      9 C6          -0.3790    -1.0140     0.2440 ca         1 P01       0.809200
     10 C5          -1.6920    -1.5020     0.1590 ca         1 P01      -0.274200
     11 N7          -2.2310    -2.7630     0.1800 nc         1 P01      -0.550100
     12 C4          -2.6830    -0.5410     0.0040 ca         1 P01       0.499800
     13 N9          -3.8490    -1.2410    -0.0690 na         1 P01      -0.256000
     14 C10         -5.1880    -0.6860    -0.2470 c3         1 P01       0.063000
     15 C11         -5.7940    -1.1580    -1.5620 c3         1 P01      -0.106600
     16 C12         -6.0680    -1.0100     0.9520 c3         1 P01      -0.106600
     17 C8          -3.5090    -2.5630     0.0430 cd         1 P01       0.396700
     18 N3          -2.5080     0.7720    -0.0610 nb         1 P01      -0.817000
     19 C2          -1.2240     1.1200     0.0470 ca         1 P01       0.966900
     20 N1          -0.1720     0.2900     0.1900 nb         1 P01      -0.866000
     21 N21         -0.9570     2.4420     0.0250 nu         1 P01      -0.859900
     22 C22          0.3650     3.0340    -0.0040 c3         1 P01       0.255500
     23 C25          0.2850     4.4490     0.5910 c3         1 P01      -0.067700
     24 C26         -0.1490     4.3930     2.0530 c3         1 P01      -0.087600
     25 C27          1.6110     5.1930     0.4680 c3         1 P01      -0.087600
     26 C23          0.9700     2.9730    -1.4000 c3         1 P01       0.112400
     27 O24          0.2140     3.7880    -2.2660 oh         1 P01      -0.601800
     28 H6A          2.3270    -3.8400     0.4810 ha         1 P01       0.147000
     29 H2A          2.0670     0.4430     0.3680 ha         1 P01       0.169000
     30 H3A          4.5160     0.5730     0.4540 ha         1 P01       0.132000
     31 H4A          5.9010    -1.4740     0.5520 ha         1 P01       0.149000
     32 HN6          0.3490    -2.8630     0.3970 hn         1 P01       0.465800
     33 H10         -5.0430     0.3940    -0.2960 h1         1 P01       0.090700
     34 H111        -5.9890    -2.2320    -1.5540 hc         1 P01       0.046700
     35 H112        -6.7440    -0.6520    -1.7350 hc         1 P01       0.046700
     36 H113        -5.1350    -0.9340    -2.4000 hc         1 P01       0.046700
     37 H121        -7.0400    -0.5320     0.8350 hc         1 P01       0.046700
     38 H122        -6.2360    -2.0830     1.0490 hc         1 P01       0.046700
     39 H123        -5.6220    -0.6460     1.8770 hc         1 P01       0.046700
     40 H8          -4.2560    -3.3430     0.0190 h5         1 P01       0.064800
     41 H21         -1.7410     3.0390    -0.1830 hn         1 P01       0.452800
     42 H22          1.0150     2.4380     0.6440 h1         1 P01       0.076700
     43 H25         -0.4680     5.0140     0.0290 hc         1 P01       0.060700
     44 H261        -0.2420     5.3990     2.4650 hc         1 P01       0.036200
     45 H262        -1.1110     3.8950     2.1800 hc         1 P01       0.036200
     46 H263         0.5860     3.8560     2.6570 hc         1 P01       0.036200
     47 H271         2.4240     4.6390     0.9420 hc         1 P01       0.036200
     48 H272         1.8890     5.3780    -0.5700 hc         1 P01       0.036200
     49 H273         1.5440     6.1630     0.9630 hc         1 P01       0.036200
     50 H231         2.0200     3.2880    -1.3510 h1         1 P01       0.032700
     51 H232         0.9720     1.9250    -1.7280 h1         1 P01       0.032700
     52 H24          0.5690     3.6940    -3.1540 ho         1 P01       0.404000
@<TRIPOS>BOND
     1     1     2 1   
     2     2     3 ar  
     3     2     7 ar  
     4     3     4 ar  
     5     3    28 1   
     6     4     5 ar  
     7     4     8 1   
     8     5     6 ar  
     9     5    29 1   
    10     6     7 ar  
    11     6    30 1   
    12     7    31 1   
    13     8     9 1   
    14     8    32 1   
    15     9    10 ar  
    16     9    20 ar  
    17    10    11 1   
    18    10    12 ar  
    19    11    17 2   
    20    12    13 1   
    21    12    18 ar  
    22    13    14 1   
    23    13    17 1   
    24    14    15 1   
    25    14    16 1   
    26    14    33 1   
    27    15    34 1   
    28    15    35 1   
    29    15    36 1   
    30    16    37 1   
    31    16    38 1   
    32    16    39 1   
    33    17    40 1   
    34    18    19 ar  
    35    19    20 ar  
    36    19    21 1   
    37    21    22 1   
    38    21    41 1   
    39    22    23 1   
    40    22    26 1   
    41    22    42 1   
    42    23    24 1   
    43    23    25 1   
    44    23    43 1   
    45    24    44 1   
    46    24    45 1   
    47    24    46 1   
    48    25    47 1   
    49    25    48 1   
    50    25    49 1   
    51    26    27 1   
    52    26    50 1   
    53    26    51 1   
    54    27    52 1   
@<TRIPOS>SUBSTRUCTURE
     1 P01         1 TEMP              0 ****  ****    0 ROOT
