@<TRIPOS>MOLECULE
P01
   52    54     1     0     0
SMALL
No Charge or Current Charge


@<TRIPOS>ATOM
      1 Cl1          5.2610    -4.1790    -0.2720 cl         1 P01      -0.207000
      2 C5A          4.2660    -2.8370     0.2760 ca         1 P01       0.152000
      3 C6A          2.8720    -2.8920     0.1190 ca         1 P01      -0.169000
      4 C1A          2.0680    -1.8230     0.5430 ca         1 P01       0.326000
      5 C2A          2.6750    -0.7060     1.1530 ca         1 P01      -0.141000
      6 C3A          4.0710    -0.6500     1.3130 ca         1 P01      -0.079000
      7 C4A          4.8680    -1.7180     0.8690 ca         1 P01      -0.136000
      8 N6           0.6860    -1.9270     0.3720 nu         1 P01      -0.923900
      9 C6          -0.3670    -1.0270     0.2600 ca         1 P01       0.480900
     10 C5          -1.6880    -1.5040     0.1510 ca         1 P01      -0.143600
     11 N7          -2.1510    -2.8200     0.1560 nc         1 P01      -0.550100
     12 C4          -2.6980    -0.5850     0.0140 ca         1 P01       0.171500
     13 N9          -3.8630    -1.3010    -0.0680 na         1 P01      -0.285300
     14 C10         -5.2080    -0.7180    -0.2230 c3         1 P01       0.092300
     15 C11         -5.8510    -1.1360    -1.5610 c3         1 P01      -0.106600
     16 C12         -6.1110    -1.0590     0.9800 c3         1 P01      -0.106600
     17 C8          -3.4810    -2.6500     0.0210 cd         1 P01       0.396700
     18 N3          -2.4590     0.7390    -0.0250 nb         1 P01      -0.291000
     19 C2          -1.1670     1.1000     0.0740 ca         1 P01       0.440900
     20 N1          -0.1030     0.2870     0.2100 nb         1 P01      -0.340000
     21 N21         -0.9330     2.4610     0.0300 nu         1 P01      -0.915100
     22 C22          0.3700     3.1400    -0.1590 c3         1 P01       0.255500
     23 C25          0.3440     4.5490     0.5250 c3         1 P01      -0.067700
     24 C26          0.0230     4.4620     2.0420 c3         1 P01      -0.087600
     25 C27          1.6630     5.3390     0.3210 c3         1 P01      -0.087600
     26 C23          0.7320     3.1670    -1.6840 c3         1 P01       0.135600
     27 O24         -0.2110     3.9420    -2.4580 oh         1 P01      -0.664000
     28 H6A          2.4220    -3.7640    -0.3440 ha         1 P01       0.129000
     29 H2A          2.0730     0.1160     1.5240 ha         1 P01       0.151000
     30 H3A          4.5320     0.2160     1.7840 ha         1 P01       0.114000
     31 H4A          5.9480    -1.6810     0.9900 ha         1 P01       0.131000
     32 HN6          0.3500    -2.8790     0.2260 hn         1 P01       0.521000
     33 H10         -5.1000     0.3750    -0.2440 h1         1 P01       0.090700
     34 H111        -6.0080    -2.2200    -1.6010 hc         1 P01       0.046700
     35 H112        -6.8220    -0.6430    -1.6930 hc         1 P01       0.046700
     36 H113        -5.2090    -0.8480    -2.4020 hc         1 P01       0.046700
     37 H121        -7.0850    -0.5650     0.8840 hc         1 P01       0.046700
     38 H122        -6.2800    -2.1400     1.0520 hc         1 P01       0.046700
     39 H123        -5.6490    -0.7190     1.9150 hc         1 P01       0.046700
     40 H8          -4.2170    -3.4450    -0.0210 h5         1 P01       0.064800
     41 H21         -1.7540     3.0060    -0.2260 hn         1 P01       0.508000
     42 H22          1.1580     2.5660     0.3510 h1         1 P01       0.076700
     43 H25         -0.4570     5.1360     0.0590 hc         1 P01       0.060700
     44 H261         0.0200     5.4600     2.4970 hc         1 P01       0.036200
     45 H262        -0.9640     4.0190     2.2180 hc         1 P01       0.036200
     46 H263         0.7700     3.8510     2.5630 hc         1 P01       0.036200
     47 H271         2.5220     4.7680     0.6930 hc         1 P01       0.036200
     48 H272         1.8300     5.5690    -0.7370 hc         1 P01       0.036200
     49 H273         1.6300     6.2940     0.8590 hc         1 P01       0.036200
     50 H231         1.7460     3.5660    -1.8100 h1         1 P01       0.032700
     51 H232         0.7540     2.1320    -2.0520 h1         1 P01       0.032700
     52 H24          0.0440     3.8450    -3.4020 ho         1 P01       0.443000
@<TRIPOS>BOND
     1     1     2 1   
     2     2     3 ar  
     3     2     7 ar  
     4     3     4 ar  
     5     3    28 1   
     6     4     5 ar  
     7     4     8 1   
     8     5     6 ar  
     9     5    29 1   
    10     6     7 ar  
    11     6    30 1   
    12     7    31 1   
    13     8     9 1   
    14     8    32 1   
    15     9    10 ar  
    16     9    20 ar  
    17    10    11 1   
    18    10    12 ar  
    19    11    17 2   
    20    12    13 1   
    21    12    18 ar  
    22    13    14 1   
    23    13    17 1   
    24    14    15 1   
    25    14    16 1   
    26    14    33 1   
    27    15    34 1   
    28    15    35 1   
    29    15    36 1   
    30    16    37 1   
    31    16    38 1   
    32    16    39 1   
    33    17    40 1   
    34    18    19 ar  
    35    19    20 ar  
    36    19    21 1   
    37    21    22 1   
    38    21    41 1   
    39    22    23 1   
    40    22    26 1   
    41    22    42 1   
    42    23    24 1   
    43    23    25 1   
    44    23    43 1   
    45    24    44 1   
    46    24    45 1   
    47    24    46 1   
    48    25    47 1   
    49    25    48 1   
    50    25    49 1   
    51    26    27 1   
    52    26    50 1   
    53    26    51 1   
    54    27    52 1   
@<TRIPOS>SUBSTRUCTURE
     1 P01         1 TEMP              0 ****  ****    0 ROOT
