@<TRIPOS>MOLECULE
P02
   56    58     1     0     0
SMALL
abcg2


@<TRIPOS>ATOM
      1 C1           3.5560     2.7930    -2.1470 c3         1 P02      -0.108100
      2 C5           3.1740     2.4080     0.9990 c3         1 P02       0.218100
      3 C9           2.8570     1.6860    -1.3790 c3         1 P02       0.234800
      4 O12          4.8940    -0.3130    -1.0410 o          1 P02      -0.545000
      5 O13          5.3610     0.5510     1.2810 o          1 P02      -0.545000
      6 N14          3.4480     1.4520    -0.0630 n3         1 P02      -0.824500
      7 S15          4.4260     0.1900     0.2340 s6         1 P02       1.283200
      8 C19         -2.5420    -4.0050     0.7660 ca         1 P02       0.381900
      9 N20         -2.0920    -2.7640     0.5750 nb         1 P02      -0.241000
     10 C21         -2.9550    -1.8650     0.1250 ca         1 P02       0.252500
     11 C22         -2.4380    -0.5180    -0.1030 cc         1 P02      -0.300500
     12 C23         -1.1500    -0.1030    -0.3140 cd         1 P02       0.385500
     13 C24          0.0450    -0.9470    -0.4720 ca         1 P02      -0.131500
     14 C25          0.1570    -1.8970    -1.4830 ca         1 P02      -0.054000
     15 C27          1.3390    -2.5940    -1.6740 ca         1 P02      -0.131000
     16 C29          2.4400    -2.3350    -0.8710 ca         1 P02      -0.044000
     17 C31          2.3570    -1.3890     0.1420 ca         1 P02       0.167000
     18 N32          3.5030    -1.0520     0.9030 nu         1 P02      -0.853100
     19 C34          1.1470    -0.7340     0.3350 ca         1 P02       0.176000
     20 F35          1.0510     0.1440     1.3400 f          1 P02      -0.171000
     21 N36         -0.9900     1.2430    -0.4510 nd         1 P02      -0.650000
     22 C37         -2.1110     1.8850    -0.3590 cc         1 P02       0.452700
     23 C38         -2.2310     3.3810    -0.4970 c3         1 P02      -0.080300
     24 C39         -3.6450     3.8540    -0.1660 c3         1 P02      -0.086100
     25 C43         -1.2310     4.0420     0.4570 c3         1 P02      -0.086100
     26 C47         -1.8870     3.7530    -1.9460 c3         1 P02      -0.086100
     27 S51         -3.4730     0.8600    -0.0930 ss         1 P02       0.006600
     28 C52         -4.2900    -2.1890    -0.1170 ca         1 P02      -0.284000
     29 C54         -4.6480    -3.5020     0.1360 ca         1 P02       0.155900
     30 N56         -3.8000    -4.4180     0.5690 nb         1 P02      -0.242000
     31 H1           3.0430     2.9740    -3.0920 hc         1 P02       0.041700
     32 H2           3.5610     3.7310    -1.5900 hc         1 P02       0.041700
     33 H3           4.5880     2.5200    -2.3680 hc         1 P02       0.041700
     34 H4           2.1860     2.8320     0.8280 h1         1 P02       0.044033
     35 H5           3.1540     1.9330     1.9770 h1         1 P02       0.044033
     36 H6           3.9020     3.2190     1.0220 h1         1 P02       0.044033
     37 H7           1.8020     1.9240    -1.2180 h1         1 P02       0.061200
     38 H8           2.8720     0.7640    -1.9580 h1         1 P02       0.061200
     39 H9          -1.9060    -5.8840     1.2070 hn         1 P02       0.497500
     40 H10         -0.6790    -4.6850     1.1990 hn         1 P02       0.497500
     41 H11         -0.6890    -2.0780    -2.1320 ha         1 P02       0.123000
     42 H12          1.4080    -3.3300    -2.4630 ha         1 P02       0.125000
     43 H13          3.3740    -2.8580    -1.0250 ha         1 P02       0.145000
     44 H14          3.3250    -0.8830     1.8890 hn         1 P02       0.485000
     45 H15         -4.3910     3.4260    -0.8400 hc         1 P02       0.043700
     46 H16         -3.9270     3.6080     0.8600 hc         1 P02       0.043700
     47 H17         -3.7040     4.9380    -0.2710 hc         1 P02       0.043700
     48 H18         -1.2960     5.1270     0.3630 hc         1 P02       0.043700
     49 H19         -1.4370     3.7780     1.4950 hc         1 P02       0.043700
     50 H20         -0.2090     3.7410     0.2270 hc         1 P02       0.043700
     51 H21         -2.5780     3.2900    -2.6510 hc         1 P02       0.043700
     52 H22         -1.9490     4.8350    -2.0730 hc         1 P02       0.043700
     53 H23         -0.8760     3.4380    -2.2020 hc         1 P02       0.043700
     54 H24         -5.0090    -1.4770    -0.4960 ha         1 P02       0.137000
     55 H25         -5.6700    -3.8270    -0.0280 h4         1 P02       0.023100
     56 N16         -1.6580    -4.9100     1.2300 nv         1 P02      -1.056900
@<TRIPOS>BOND
     1     1     3 1   
     2     1    31 1   
     3     1    32 1   
     4     1    33 1   
     5     2     6 1   
     6     2    34 1   
     7     2    35 1   
     8     2    36 1   
     9     3     6 1   
    10     3    37 1   
    11     3    38 1   
    12     4     7 2   
    13     5     7 2   
    14     6     7 1   
    15     7    18 1   
    16     8     9 ar  
    17     8    30 ar  
    18     8    56 1   
    19     9    10 ar  
    20    10    11 1   
    21    10    28 ar  
    22    11    12 2   
    23    11    27 1   
    24    12    13 1   
    25    12    21 1   
    26    13    14 ar  
    27    13    19 ar  
    28    14    15 ar  
    29    14    41 1   
    30    15    16 ar  
    31    15    42 1   
    32    16    17 ar  
    33    16    43 1   
    34    17    18 1   
    35    17    19 ar  
    36    18    44 1   
    37    19    20 1   
    38    21    22 2   
    39    22    23 1   
    40    22    27 1   
    41    23    24 1   
    42    23    25 1   
    43    23    26 1   
    44    24    45 1   
    45    24    46 1   
    46    24    47 1   
    47    25    48 1   
    48    25    49 1   
    49    25    50 1   
    50    26    51 1   
    51    26    52 1   
    52    26    53 1   
    53    28    29 ar  
    54    28    54 1   
    55    29    30 ar  
    56    29    55 1   
    57    39    56 1   
    58    40    56 1   
@<TRIPOS>SUBSTRUCTURE
     1 P02         1 TEMP              0 ****  ****    0 ROOT
