@<TRIPOS>MOLECULE
P02
   56    58     1     0     0
SMALL
No Charge or Current Charge


@<TRIPOS>ATOM
      1 C1           3.5060     2.0770    -1.7640 c3         1 P02      -0.108100
      2 C5           6.0660     2.3410     0.0800 c3         1 P02       0.218100
      3 C9           3.6070     2.3660    -0.2510 c3         1 P02       0.234800
      4 O12          5.0380    -0.5420    -0.7030 o          1 P02      -0.545000
      5 O13          5.6520    -0.2550     1.7640 o          1 P02      -0.545000
      6 N14          4.7630     1.7530     0.4520 n3         1 P02      -0.824500
      7 S15          4.8070     0.0540     0.6120 s6         1 P02       1.283200
      8 C19         -2.6760    -4.0580     0.4890 ca         1 P02       0.381900
      9 N20         -2.3550    -2.7590     0.4180 nb         1 P02      -0.241000
     10 C21         -3.0110    -2.0220    -0.5040 ca         1 P02       0.252500
     11 C22         -2.7240    -0.5940    -0.6280 cc         1 P02      -0.300500
     12 C23         -1.4920    -0.0340    -0.3270 cd         1 P02       0.385500
     13 C24         -0.1710    -0.7150    -0.3270 ca         1 P02      -0.131500
     14 C25          0.0560    -1.8220    -1.1780 ca         1 P02      -0.054000
     15 C27          1.3130    -2.4400    -1.2370 ca         1 P02      -0.131000
     16 C29          2.3820    -1.9450    -0.4750 ca         1 P02      -0.044000
     17 C31          2.2090    -0.8140     0.3440 ca         1 P02       0.167000
     18 N32          3.2750    -0.3080     1.1120 nu         1 P02      -0.853100
     19 C34          0.9260    -0.2130     0.4200 ca         1 P02       0.176000
     20 F35          0.7510     0.8220     1.2810 f          1 P02      -0.171000
     21 N36         -1.5280     1.3520    -0.2590 nd         1 P02      -0.650000
     22 C37         -2.7650     1.8110    -0.4190 cc         1 P02       0.452700
     23 C38         -3.1350     3.2960    -0.3750 c3         1 P02      -0.080300
     24 C39         -4.2420     3.5330     0.6890 c3         1 P02      -0.086100
     25 C43         -1.9100     4.1850    -0.0050 c3         1 P02      -0.086100
     26 C47         -3.6590     3.7450    -1.7660 c3         1 P02      -0.086100
     27 S51         -3.9800     0.6010    -0.7530 ss         1 P02       0.006600
     28 C52         -3.9870    -2.6140    -1.3250 ca         1 P02      -0.284000
     29 C54         -4.2420    -3.9860    -1.1640 ca         1 P02       0.155900
     30 N56         -3.5800    -4.7180    -0.2490 nb         1 P02      -0.242000
     31 H1           2.6820     2.6550    -2.1980 hc         1 P02       0.041700
     32 H2           4.4280     2.3590    -2.2850 hc         1 P02       0.041700
     33 H3           3.3020     1.0180    -1.9540 hc         1 P02       0.041700
     34 H4           6.0190     3.4380     0.0990 h1         1 P02       0.044033
     35 H5           6.8510     2.0310     0.7820 h1         1 P02       0.044033
     36 H6           6.3680     2.0280    -0.9280 h1         1 P02       0.044033
     37 H7           3.6610     3.4570    -0.1320 h1         1 P02       0.061200
     38 H8           2.6620     2.0720     0.2190 h1         1 P02       0.061200
     39 H9          -2.0590    -5.8070     1.3580 hn         1 P02       0.497500
     40 H10         -1.1730    -4.3990     1.8410 hn         1 P02       0.497500
     41 H11         -0.7370    -2.2000    -1.8180 ha         1 P02       0.123000
     42 H12          1.4640    -3.3000    -1.8850 ha         1 P02       0.125000
     43 H13          3.3430    -2.4490    -0.5220 ha         1 P02       0.145000
     44 H14          3.0600     0.4940     1.6860 hn         1 P02       0.485000
     45 H15         -5.1620     2.9920     0.4380 hc         1 P02       0.043700
     46 H16         -3.9100     3.1950     1.6780 hc         1 P02       0.043700
     47 H17         -4.4950     4.5980     0.7630 hc         1 P02       0.043700
     48 H18         -2.1890     5.2450     0.0320 hc         1 P02       0.043700
     49 H19         -1.5070     3.9110     0.9790 hc         1 P02       0.043700
     50 H20         -1.1060     4.0780    -0.7430 hc         1 P02       0.043700
     51 H21         -4.5650     3.1960    -2.0490 hc         1 P02       0.043700
     52 H22         -3.9040     4.8140    -1.7680 hc         1 P02       0.043700
     53 H23         -2.9020     3.5700    -2.5420 hc         1 P02       0.043700
     54 H24         -4.5260    -2.0340    -2.0680 ha         1 P02       0.137000
     55 H25         -4.9820    -4.5030    -1.7720 h4         1 P02       0.023100
     56 N16         -2.0080    -4.7920     1.4130 nv         1 P02      -1.056900
@<TRIPOS>BOND
     1     1     3 1   
     2     1    31 1   
     3     1    32 1   
     4     1    33 1   
     5     2     6 1   
     6     2    34 1   
     7     2    35 1   
     8     2    36 1   
     9     3     6 1   
    10     3    37 1   
    11     3    38 1   
    12     4     7 2   
    13     5     7 2   
    14     6     7 1   
    15     7    18 1   
    16     8     9 ar  
    17     8    30 ar  
    18     8    56 1   
    19     9    10 ar  
    20    10    11 1   
    21    10    28 ar  
    22    11    12 2   
    23    11    27 1   
    24    12    13 1   
    25    12    21 1   
    26    13    14 ar  
    27    13    19 ar  
    28    14    15 ar  
    29    14    41 1   
    30    15    16 ar  
    31    15    42 1   
    32    16    17 ar  
    33    16    43 1   
    34    17    18 1   
    35    17    19 ar  
    36    18    44 1   
    37    19    20 1   
    38    21    22 2   
    39    22    23 1   
    40    22    27 1   
    41    23    24 1   
    42    23    25 1   
    43    23    26 1   
    44    24    45 1   
    45    24    46 1   
    46    24    47 1   
    47    25    48 1   
    48    25    49 1   
    49    25    50 1   
    50    26    51 1   
    51    26    52 1   
    52    26    53 1   
    53    28    29 ar  
    54    28    54 1   
    55    29    30 ar  
    56    29    55 1   
    57    39    56 1   
    58    40    56 1   
@<TRIPOS>SUBSTRUCTURE
     1 P02         1 TEMP              0 ****  ****    0 ROOT
