@<TRIPOS>MOLECULE
P03
   37    36     1     0     0
SMALL
bcc


@<TRIPOS>ATOM
      1 C1          -7.1260    -0.5080    -0.3140 c3         1 P03       0.140400
      2 O1          -7.1830    -1.1940     0.9160 oh         1 P03      -0.585800
      3 C2          -6.0000     0.4920    -0.2830 c3         1 P03       0.138400
      4 O2          -4.7660    -0.1740    -0.1890 os         1 P03      -0.396600
      5 C3          -3.6730     0.7100    -0.1660 c3         1 P03       0.140400
      6 O3          -0.0100     0.0580     0.0190 os         1 P03      -0.407600
      7 C4          -2.3860    -0.0880    -0.0800 c3         1 P03      -0.084400
      8 O4           4.7460    -0.1570     0.2340 os         1 P03      -0.396600
      9 C5          -1.1820     0.8330    -0.0410 c3         1 P03       0.141400
     10 O5           7.1740    -1.1540    -0.8720 oh         1 P03      -0.585800
     11 C6           1.1580     0.8380     0.0910 c3         1 P03       0.141400
     12 C7           2.3660    -0.0790     0.1220 c3         1 P03      -0.084400
     13 C8           3.6500     0.7230     0.2230 c3         1 P03       0.140400
     14 C9           5.9770     0.5130     0.3410 c3         1 P03       0.138400
     15 C10          7.1070    -0.4840     0.3660 c3         1 P03       0.140400
     16 H1          -6.9790    -1.1960    -1.1570 h1         1 P03       0.024450
     17 H1A         -8.0510     0.0470    -0.5150 h1         1 P03       0.024450
     18 HO1         -7.9510    -1.7710     0.9000 ho         1 P03       0.401000
     19 H2          -6.0520     1.0960    -1.2010 h1         1 P03       0.026700
     20 H2A         -6.1370     1.1860     0.5600 h1         1 P03       0.026700
     21 H3          -3.6660     1.3380    -1.0700 h1         1 P03       0.017200
     22 H3A         -3.7500     1.3960     0.6910 h1         1 P03       0.017200
     23 H4          -2.4000    -0.7110     0.8190 hc         1 P03       0.067700
     24 H4A         -2.3100    -0.7540    -0.9430 hc         1 P03       0.067700
     25 H5          -1.2490     1.5010     0.8310 h1         1 P03       0.017700
     26 H5A         -1.1720     1.4790    -0.9310 h1         1 P03       0.017700
     27 HO5          7.9250    -1.7520    -0.8470 ho         1 P03       0.401000
     28 H6           1.2240     1.5150    -0.7730 h1         1 P03       0.017700
     29 H6A          1.1430     1.4730     0.9880 h1         1 P03       0.017700
     30 H7           2.2900    -0.7570     0.9770 hc         1 P03       0.067700
     31 H7A          2.3860    -0.6900    -0.7840 hc         1 P03       0.067700
     32 H8           3.6380     1.3370     1.1360 h1         1 P03       0.017200
     33 H8A          3.7250     1.4220    -0.6230 h1         1 P03       0.017200
     34 H9           6.1150     1.2140    -0.4950 h1         1 P03       0.026700
     35 H9A          6.0230     1.1080     1.2640 h1         1 P03       0.026700
     36 H10          6.9570    -1.1820     1.2010 h1         1 P03       0.024450
     37 H10A         8.0280     0.0730     0.5800 h1         1 P03       0.024450
@<TRIPOS>BOND
     1     1     2 1   
     2     1     3 1   
     3     1    16 1   
     4     1    17 1   
     5     2    18 1   
     6     3     4 1   
     7     3    19 1   
     8     3    20 1   
     9     4     5 1   
    10     5     7 1   
    11     5    21 1   
    12     5    22 1   
    13     6     9 1   
    14     6    11 1   
    15     7     9 1   
    16     7    23 1   
    17     7    24 1   
    18     8    13 1   
    19     8    14 1   
    20     9    25 1   
    21     9    26 1   
    22    10    15 1   
    23    10    27 1   
    24    11    12 1   
    25    11    28 1   
    26    11    29 1   
    27    12    13 1   
    28    12    30 1   
    29    12    31 1   
    30    13    32 1   
    31    13    33 1   
    32    14    15 1   
    33    14    34 1   
    34    14    35 1   
    35    15    36 1   
    36    15    37 1   
@<TRIPOS>SUBSTRUCTURE
     1 P03         1 TEMP              0 ****  ****    0 ROOT
