@<TRIPOS>MOLECULE
P03
   37    36     1     0     0
SMALL
No Charge or Current Charge


@<TRIPOS>ATOM
      1 C1          -7.1360    -0.7910    -0.3220 c3         1 P03       0.163600
      2 O1          -7.1620    -1.5210     0.9200 oh         1 P03      -0.708000
      3 C2          -6.1270     0.3890    -0.2750 c3         1 P03       0.161600
      4 O2          -4.7850    -0.1340    -0.2090 os         1 P03      -0.443000
      5 C3          -3.7590     0.8690    -0.1560 c3         1 P03       0.163600
      6 O3          -0.0110     0.3530     0.0270 os         1 P03      -0.454000
      7 C4          -2.4020     0.1480    -0.0910 c3         1 P03      -0.084400
      8 O4           4.7640    -0.1190     0.2590 os         1 P03      -0.443000
      9 C5          -1.2180     1.1290    -0.0300 c3         1 P03       0.164600
     10 O5           7.1460    -1.4900    -0.8780 oh         1 P03      -0.708000
     11 C6           1.1930     1.1330     0.0880 c3         1 P03       0.164600
     12 C7           2.3790     0.1560     0.1430 c3         1 P03      -0.084400
     13 C8           3.7340     0.8810     0.2130 c3         1 P03       0.163600
     14 C9           6.1050     0.4080     0.3290 c3         1 P03       0.161600
     15 C10          7.1170    -0.7680     0.3690 c3         1 P03       0.163600
     16 H1          -6.8670    -1.4560    -1.1540 h1         1 P03       0.024450
     17 H1A         -8.1340    -0.3850    -0.5370 h1         1 P03       0.024450
     18 HO1         -7.7730    -2.2840     0.7900 ho         1 P03       0.500000
     19 H2          -6.2540     0.9990    -1.1790 h1         1 P03       0.026700
     20 H2A         -6.3450     1.0220     0.5950 h1         1 P03       0.026700
     21 H3          -3.7950     1.5070    -1.0490 h1         1 P03       0.017200
     22 H3A         -3.8820     1.5030     0.7320 h1         1 P03       0.017200
     23 H4          -2.3790    -0.4990     0.7940 hc         1 P03       0.067700
     24 H4A         -2.2920    -0.4940    -0.9730 hc         1 P03       0.067700
     25 H5          -1.3130     1.7650     0.8600 h1         1 P03       0.017700
     26 H5A         -1.2250     1.7710    -0.9210 h1         1 P03       0.017700
     27 HO5          7.7600    -2.2520    -0.7540 ho         1 P03       0.500000
     28 H6           1.2850     1.7750    -0.7980 h1         1 P03       0.017700
     29 H6A          1.1980     1.7690     0.9840 h1         1 P03       0.017700
     30 H7           2.2720    -0.4920     1.0210 hc         1 P03       0.067700
     31 H7A          2.3590    -0.4860    -0.7460 hc         1 P03       0.067700
     32 H8           3.7680     1.5130     1.1100 h1         1 P03       0.017200
     33 H8A          3.8550     1.5210    -0.6710 h1         1 P03       0.017200
     34 H9           6.3200     1.0480    -0.5370 h1         1 P03       0.026700
     35 H9A          6.2290     1.0130     1.2370 h1         1 P03       0.026700
     36 H10          6.8510    -1.4400     1.1960 h1         1 P03       0.024450
     37 H10A         8.1140    -0.3600     0.5870 h1         1 P03       0.024450
@<TRIPOS>BOND
     1     1     2 1   
     2     1     3 1   
     3     1    16 1   
     4     1    17 1   
     5     2    18 1   
     6     3     4 1   
     7     3    19 1   
     8     3    20 1   
     9     4     5 1   
    10     5     7 1   
    11     5    21 1   
    12     5    22 1   
    13     6     9 1   
    14     6    11 1   
    15     7     9 1   
    16     7    23 1   
    17     7    24 1   
    18     8    13 1   
    19     8    14 1   
    20     9    25 1   
    21     9    26 1   
    22    10    15 1   
    23    10    27 1   
    24    11    12 1   
    25    11    28 1   
    26    11    29 1   
    27    12    13 1   
    28    12    30 1   
    29    12    31 1   
    30    13    32 1   
    31    13    33 1   
    32    14    15 1   
    33    14    34 1   
    34    14    35 1   
    35    15    36 1   
    36    15    37 1   
@<TRIPOS>SUBSTRUCTURE
     1 P03         1 TEMP              0 ****  ****    0 ROOT
