@<TRIPOS>MOLECULE
P04
   48    52     1     0     0
SMALL
abcg2


@<TRIPOS>ATOM
      1 N01         -2.7920     2.4530     0.4150 nc         1 P04      -0.604100
      2 C02         -1.7180     3.2200     0.4880 cd         1 P04       0.414500
      3 C03         -0.5040     2.5080     0.5350 cd         1 P04      -0.311800
      4 C04         -0.9120     1.1840     0.4840 cc         1 P04       0.198500
      5 N05         -2.2840     1.2090     0.4110 na         1 P04      -0.161600
      6 N06         -0.2580     0.0180     0.4730 nc         1 P04      -0.269000
      7 C07         -0.9960    -1.0520     0.3130 cd         1 P04       0.435900
      8 N08         -2.3470    -1.0990     0.2760 nd         1 P04      -0.343000
      9 C09         -2.9870     0.0420     0.3360 cc         1 P04       0.608400
     10 N10         -4.3130     0.1250     0.3180 nu         1 P04      -0.895100
     11 C11         -5.1550    -1.0250     0.2770 cx         1 P04       0.172500
     12 C12         -6.4270    -0.9110    -0.4970 cx         1 P04      -0.128400
     13 C13         -5.3100    -1.7630    -1.0140 cx         1 P04      -0.128400
     14 N17         -0.3730    -2.2570     0.1640 nu         1 P04      -0.933900
     15 C18          1.0160    -2.4170     0.1070 ca         1 P04       0.311000
     16 C19          1.7940    -1.4970    -0.5850 ca         1 P04      -0.141000
     17 C20          3.1770    -1.5340    -0.5100 ca         1 P04      -0.040000
     18 C21          3.8140    -2.5690     0.1600 ca         1 P04      -0.096000
     19 C22          3.0340    -3.5470     0.7660 ca         1 P04      -0.084000
     20 C23          1.6470    -3.4690     0.7680 ca         1 P04      -0.151000
     21 N27          3.8710    -0.4300    -1.0710 ns         1 P04      -0.146000
     22 C28          4.3850     0.5320    -0.2440 c          1 P04       0.594100
     23 O29          4.7520     0.2830     0.8890 o          1 P04      -0.566100
     24 C30          4.3890     1.9400    -0.7950 c3         1 P04      -0.161400
     25 C31          3.3410     2.7850    -0.0490 c3         1 P04      -0.069400
     26 C32          1.9100     2.2870    -0.2280 c3         1 P04      -0.088400
     27 C33          0.8940     3.0410     0.6360 c3         1 P04       0.027800
     28 H02         -1.8360     4.2940     0.5020 h4         1 P04       0.043800
     29 HN10        -4.7260     1.0370     0.4460 hn         1 P04       0.535000
     30 H11         -5.1730    -1.6110     1.1900 h1         1 P04       0.095700
     31 H12         -7.3040    -1.3930    -0.0860 hc         1 P04       0.082200
     32 H12A        -6.6240     0.0250    -1.0030 hc         1 P04       0.082200
     33 H13         -4.7510    -1.3980    -1.8660 hc         1 P04       0.082200
     34 H13A        -5.4090    -2.8390    -0.9650 hc         1 P04       0.082200
     35 HN17        -0.9490    -3.0760     0.2790 hn         1 P04       0.514000
     36 H19          1.3250    -0.6960    -1.1350 ha         1 P04       0.131000
     37 H21          4.8930    -2.6160     0.2100 ha         1 P04       0.133000
     38 H22          3.5160    -4.3690     1.2800 ha         1 P04       0.117000
     39 H23          1.0610    -4.2100     1.2980 ha         1 P04       0.114000
     40 HN27         3.4880    -0.0910    -1.9420 hn         1 P04       0.136000
     41 H30          5.3780     2.3750    -0.6410 hc         1 P04       0.060200
     42 H30A         4.1900     1.9550    -1.8690 hc         1 P04       0.060200
     43 H31          3.5970     2.8010     1.0140 hc         1 P04       0.050700
     44 H31A         3.4230     3.8170    -0.3980 hc         1 P04       0.050700
     45 H32          1.6220     2.3600    -1.2820 hc         1 P04       0.051200
     46 H32A         1.8470     1.2290     0.0320 hc         1 P04       0.051200
     47 H33          0.8890     4.1010     0.3660 hc         1 P04       0.041700
     48 H33A         1.2290     3.0030     1.6780 hc         1 P04       0.041700
@<TRIPOS>BOND
     1     1     2 2   
     2     1     5 1   
     3     2     3 1   
     4     2    28 1   
     5     3     4 2   
     6     3    27 1   
     7     4     5 1   
     8     4     6 1   
     9     5     9 1   
    10     6     7 2   
    11     7     8 1   
    12     7    14 1   
    13     8     9 2   
    14     9    10 1   
    15    10    11 1   
    16    10    29 1   
    17    11    12 1   
    18    11    13 1   
    19    11    30 1   
    20    12    13 1   
    21    12    31 1   
    22    12    32 1   
    23    13    33 1   
    24    13    34 1   
    25    14    15 1   
    26    14    35 1   
    27    15    16 ar  
    28    15    20 ar  
    29    16    17 ar  
    30    16    36 1   
    31    17    18 ar  
    32    17    21 1   
    33    18    19 ar  
    34    18    37 1   
    35    19    20 ar  
    36    19    38 1   
    37    20    39 1   
    38    21    22 1   
    39    21    40 1   
    40    22    23 2   
    41    22    24 1   
    42    24    25 1   
    43    24    41 1   
    44    24    42 1   
    45    25    26 1   
    46    25    43 1   
    47    25    44 1   
    48    26    27 1   
    49    26    45 1   
    50    26    46 1   
    51    27    47 1   
    52    27    48 1   
@<TRIPOS>SUBSTRUCTURE
     1 P04         1 TEMP              0 ****  ****    0 ROOT
