@<TRIPOS>MOLECULE
P04
   48    52     1     0     0
SMALL
No Charge or Current Charge


@<TRIPOS>ATOM
      1 N01         -2.8790     2.4690     0.4450 nc         1 P04      -0.604100
      2 C02         -1.7680     3.2070     0.5260 cd         1 P04       0.414500
      3 C03         -0.5590     2.4400     0.5900 cd         1 P04      -0.311800
      4 C04         -0.9820     1.1380     0.5610 cc         1 P04       0.198500
      5 N05         -2.3240     1.2030     0.4590 na         1 P04      -0.161600
      6 N06         -0.2400     0.0210     0.5790 nc         1 P04      -0.269000
      7 C07         -0.9470    -1.0890     0.4070 cd         1 P04       0.435900
      8 N08         -2.3350    -1.1770     0.3270 nd         1 P04      -0.343000
      9 C09         -3.0070    -0.0180     0.3720 cc         1 P04       0.608400
     10 N10         -4.3720     0.0110     0.2940 nu         1 P04      -0.895100
     11 C11         -5.3130    -1.0660     0.1900 cx         1 P04       0.172500
     12 C12         -6.6250    -0.7740    -0.4930 cx         1 P04      -0.128400
     13 C13         -5.5830    -1.6150    -1.1880 cx         1 P04      -0.128400
     14 N17         -0.2590    -2.2650     0.2880 nu         1 P04      -0.933900
     15 C18          1.1160    -2.4840     0.1290 ca         1 P04       0.311000
     16 C19          1.8790    -1.5650    -0.6090 ca         1 P04      -0.141000
     17 C20          3.2730    -1.5580    -0.5370 ca         1 P04      -0.040000
     18 C21          3.9380    -2.5740     0.1720 ca         1 P04      -0.096000
     19 C22          3.1850    -3.5860     0.8030 ca         1 P04      -0.084000
     20 C23          1.7740    -3.5290     0.7980 ca         1 P04      -0.151000
     21 N27          3.9130    -0.4060    -1.0440 ns         1 P04      -0.146000
     22 C28          4.5670     0.5680    -0.3080 c          1 P04       0.594100
     23 O29          5.1450     0.3400     0.7490 o          1 P04      -0.566100
     24 C30          4.4270     1.9900    -0.8790 c3         1 P04      -0.161400
     25 C31          3.3540     2.8290    -0.1150 c3         1 P04      -0.069400
     26 C32          1.9390     2.1880    -0.0930 c3         1 P04      -0.088400
     27 C33          0.8550     3.0080     0.6630 c3         1 P04       0.027800
     28 H02         -1.8590     4.2870     0.5280 h4         1 P04       0.043800
     29 HN10        -4.6850     0.9830     0.3300 hn         1 P04       0.535000
     30 H11         -5.3170    -1.7680     1.0280 h1         1 P04       0.095700
     31 H12         -7.5110    -1.2770    -0.1120 hc         1 P04       0.082200
     32 H12A        -6.7990     0.2300    -0.8700 hc         1 P04       0.082200
     33 H13         -5.0500    -1.1740    -2.0270 hc         1 P04       0.082200
     34 H13A        -5.7660    -2.6830    -1.2750 hc         1 P04       0.082200
     35 HN17        -0.8230    -3.0870     0.5030 hn         1 P04       0.514000
     36 H19          1.3840    -0.7750    -1.1630 ha         1 P04       0.131000
     37 H21          5.0230    -2.5720     0.2500 ha         1 P04       0.133000
     38 H22          3.6930    -4.3780     1.3480 ha         1 P04       0.117000
     39 H23          1.2020    -4.2610     1.3620 ha         1 P04       0.114000
     40 HN27         3.5280    -0.0790    -1.9210 hn         1 P04       0.136000
     41 H30          5.3910     2.5030    -0.7890 hc         1 P04       0.060200
     42 H30A         4.1340     1.9410    -1.9350 hc         1 P04       0.060200
     43 H31          3.6910     2.9820     0.9180 hc         1 P04       0.050700
     44 H31A         3.2910     3.8240    -0.5740 hc         1 P04       0.050700
     45 H32          1.6030     2.0150    -1.1230 hc         1 P04       0.051200
     46 H32A         2.0260     1.2110     0.3910 hc         1 P04       0.051200
     47 H33          0.8520     4.0280     0.2590 hc         1 P04       0.041700
     48 H33A         1.1550     3.0990     1.7140 hc         1 P04       0.041700
@<TRIPOS>BOND
     1     1     2 2   
     2     1     5 1   
     3     2     3 1   
     4     2    28 1   
     5     3     4 2   
     6     3    27 1   
     7     4     5 1   
     8     4     6 1   
     9     5     9 1   
    10     6     7 2   
    11     7     8 1   
    12     7    14 1   
    13     8     9 2   
    14     9    10 1   
    15    10    11 1   
    16    10    29 1   
    17    11    12 1   
    18    11    13 1   
    19    11    30 1   
    20    12    13 1   
    21    12    31 1   
    22    12    32 1   
    23    13    33 1   
    24    13    34 1   
    25    14    15 1   
    26    14    35 1   
    27    15    16 ar  
    28    15    20 ar  
    29    16    17 ar  
    30    16    36 1   
    31    17    18 ar  
    32    17    21 1   
    33    18    19 ar  
    34    18    37 1   
    35    19    20 ar  
    36    19    38 1   
    37    20    39 1   
    38    21    22 1   
    39    21    40 1   
    40    22    23 2   
    41    22    24 1   
    42    24    25 1   
    43    24    41 1   
    44    24    42 1   
    45    25    26 1   
    46    25    43 1   
    47    25    44 1   
    48    26    27 1   
    49    26    45 1   
    50    26    46 1   
    51    27    47 1   
    52    27    48 1   
@<TRIPOS>SUBSTRUCTURE
     1 P04         1 TEMP              0 ****  ****    0 ROOT
