@<TRIPOS>MOLECULE
P05
   50    52     1     0     0
SMALL
abcg2


@<TRIPOS>ATOM
      1 N21         -2.7210     1.8370    -0.8700 n8         1 P05      -0.982200
      2 C8          -2.4870     0.4850    -0.4240 c3         1 P05       0.104500
      3 C9          -1.0090     0.1780    -0.1670 c          1 P05       0.566100
      4 O25         -0.2430     1.0530     0.2200 o          1 P05      -0.619100
      5 C7          -3.2540     0.2210     0.8840 c3         1 P05      -0.025100
      6 C4          -4.7410     0.3250     0.7100 ca         1 P05      -0.068300
      7 C3          -5.4700    -0.7640     0.2360 ca         1 P05      -0.098000
      8 C5          -5.4220     1.5040     0.9990 ca         1 P05      -0.098000
      9 C2          -6.8440    -0.6800     0.0550 ca         1 P05      -0.110500
     10 C6          -6.7970     1.5920     0.8250 ca         1 P05      -0.110500
     11 C1          -7.5130     0.5010     0.3500 ca         1 P05      -0.109000
     12 N22         -0.5900    -1.0840    -0.3410 n          1 P05      -0.396800
     13 C13          0.7980    -1.4260    -0.0920 c5         1 P05       0.029700
     14 C14          1.7340    -0.5740    -0.9400 c          1 P05       0.602100
     15 O26          1.4830    -0.3050    -2.1040 o          1 P05      -0.598100
     16 C12          0.8850    -2.9060    -0.4930 c5         1 P05      -0.085400
     17 C11         -0.5410    -3.4100    -0.3100 c5         1 P05      -0.094400
     18 C10         -1.3820    -2.2300    -0.7740 c5         1 P05       0.106000
     19 C15          3.8940     0.5560    -1.0200 c3         1 P05       0.150300
     20 C16          5.0900     0.7170    -0.1260 ca         1 P05      -0.076300
     21 C17          6.0600    -0.2750    -0.0400 ca         1 P05      -0.150500
     22 C18          7.1320    -0.0930     0.8200 ca         1 P05       0.331900
     23 C19          6.3610     1.9310     1.4970 ca         1 P05       0.331900
     24 C20          5.2510     1.8440     0.6690 ca         1 P05      -0.150500
     25 N23          2.8760    -0.2180    -0.3370 ns         1 P05      -0.499900
     26 N24          7.2900     0.9860     1.5780 nb         1 P05      -0.659000
     27 HN21        -2.2930     2.4900    -0.2250 hn         1 P05       0.410500
     28 HN2A        -2.2720     1.9900    -1.7650 hn         1 P05       0.410500
     29 H8          -2.8740    -0.1860    -1.1960 h1         1 P05       0.073700
     30 H7          -2.9100     0.9360     1.6370 hc         1 P05       0.052700
     31 H7A         -2.9990    -0.7720     1.2650 hc         1 P05       0.052700
     32 H3          -4.9570    -1.6930     0.0100 ha         1 P05       0.107000
     33 H5          -4.8750     2.3600     1.3730 ha         1 P05       0.107000
     34 H2          -7.3920    -1.5400    -0.3100 ha         1 P05       0.110500
     35 H6          -7.3100     2.5160     1.0620 ha         1 P05       0.110500
     36 H1          -8.5850     0.5680     0.2160 ha         1 P05       0.111000
     37 H13          1.0320    -1.3040     0.9710 h1         1 P05       0.064700
     38 H12          1.6160    -3.4430     0.1100 hc         1 P05       0.063700
     39 H12A         1.1790    -2.9990    -1.5400 hc         1 P05       0.063700
     40 H11         -0.7430    -3.6180     0.7430 hc         1 P05       0.057200
     41 H11A        -0.7500    -4.3150    -0.8800 hc         1 P05       0.057200
     42 H10         -1.5070    -2.2330    -1.8610 h1         1 P05       0.054200
     43 H10A        -2.3730    -2.2310    -0.3200 h1         1 P05       0.054200
     44 H15          3.5020     1.5370    -1.3010 h1         1 P05       0.063200
     45 H15A         4.1840     0.0480    -1.9410 h1         1 P05       0.063200
     46 H17          5.9930    -1.1750    -0.6370 ha         1 P05       0.128500
     47 H18          7.9000    -0.8560     0.8960 h4         1 P05       0.021100
     48 H19          6.5040     2.8080     2.1190 h4         1 P05       0.021100
     49 H20          4.5290     2.6510     0.6470 ha         1 P05       0.128500
     50 HN23         2.9960    -0.4130     0.6440 hn         1 P05       0.321500
@<TRIPOS>BOND
     1     1     2 1   
     2     1    27 1   
     3     1    28 1   
     4     2     3 1   
     5     2     5 1   
     6     2    29 1   
     7     3     4 2   
     8     3    12 1   
     9     5     6 1   
    10     5    30 1   
    11     5    31 1   
    12     6     7 ar  
    13     6     8 ar  
    14     7     9 ar  
    15     7    32 1   
    16     8    10 ar  
    17     8    33 1   
    18     9    11 ar  
    19     9    34 1   
    20    10    11 ar  
    21    10    35 1   
    22    11    36 1   
    23    12    13 1   
    24    12    18 1   
    25    13    14 1   
    26    13    16 1   
    27    13    37 1   
    28    14    15 2   
    29    14    25 1   
    30    16    17 1   
    31    16    38 1   
    32    16    39 1   
    33    17    18 1   
    34    17    40 1   
    35    17    41 1   
    36    18    42 1   
    37    18    43 1   
    38    19    20 1   
    39    19    25 1   
    40    19    44 1   
    41    19    45 1   
    42    20    21 ar  
    43    20    24 ar  
    44    21    22 ar  
    45    21    46 1   
    46    22    26 ar  
    47    22    47 1   
    48    23    24 ar  
    49    23    26 ar  
    50    23    48 1   
    51    24    49 1   
    52    25    50 1   
@<TRIPOS>SUBSTRUCTURE
     1 P05         1 TEMP              0 ****  ****    0 ROOT
