@<TRIPOS>MOLECULE
P05
   50    52     1     0     0
SMALL
No Charge or Current Charge


@<TRIPOS>ATOM
      1 N21         -3.1220     2.0060    -1.1260 n8         1 P05      -0.982200
      2 C8          -2.7390     0.7210    -0.4370 c3         1 P05       0.104500
      3 C9          -1.2000     0.5670    -0.1260 c          1 P05       0.566100
      4 O25         -0.5110     1.5510     0.1280 o          1 P05      -0.619100
      5 C7          -3.5740     0.5250     0.8580 c3         1 P05      -0.025100
      6 C4          -5.0640     0.3140     0.6000 ca         1 P05      -0.068300
      7 C3          -5.5230    -0.9000     0.0510 ca         1 P05      -0.098000
      8 C5          -5.9970     1.3210     0.9230 ca         1 P05      -0.098000
      9 C2          -6.8950    -1.1030    -0.1780 ca         1 P05      -0.110500
     10 C6          -7.3690     1.1180     0.6940 ca         1 P05      -0.110500
     11 C1          -7.8190    -0.0940     0.1430 ca         1 P05      -0.109000
     12 N22         -0.6140    -0.7220    -0.1600 n          1 P05      -0.396800
     13 C13          0.8500    -0.9450     0.0330 c5         1 P05       0.029700
     14 C14          1.7890    -0.1610    -0.9430 c          1 P05       0.602100
     15 O26          1.5080     0.3090    -2.0400 o          1 P05      -0.598100
     16 C12          0.9780    -2.4660    -0.2890 c5         1 P05      -0.085400
     17 C11         -0.3790    -3.0230     0.2000 c5         1 P05      -0.094400
     18 C10         -1.3690    -1.9770    -0.3680 c5         1 P05       0.106000
     19 C15          4.1760     0.5970    -1.0320 c3         1 P05       0.150300
     20 C16          5.4350     0.4740    -0.1890 ca         1 P05      -0.076300
     21 C17          6.2960    -0.6300    -0.3230 ca         1 P05      -0.150500
     22 C18          7.4480    -0.7090     0.4810 ca         1 P05       0.331900
     23 C19          6.9450     1.2970     1.5250 ca         1 P05       0.331900
     24 C20          5.7750     1.4530     0.7620 ca         1 P05      -0.150500
     25 N23          3.0460    -0.0660    -0.3880 ns         1 P05      -0.499900
     26 N24          7.7760     0.2360     1.3930 nb         1 P05      -0.659000
     27 HN21        -2.7620     2.7900    -0.5680 hn         1 P05       0.410500
     28 HN2A        -2.5900     2.0900    -2.0010 hn         1 P05       0.410500
     29 H8          -2.9990    -0.0930    -1.1270 h1         1 P05       0.073700
     30 H7          -3.4150     1.3870     1.5180 hc         1 P05       0.052700
     31 H7A         -3.1860    -0.3370     1.4130 hc         1 P05       0.052700
     32 H3          -4.8170    -1.6890    -0.1970 ha         1 P05       0.107000
     33 H5          -5.6590     2.2630     1.3480 ha         1 P05       0.107000
     34 H2          -7.2420    -2.0430    -0.6020 ha         1 P05       0.110500
     35 H6          -8.0830     1.8990     0.9430 ha         1 P05       0.110500
     36 H1          -8.8810    -0.2510    -0.0330 ha         1 P05       0.111000
     37 H13          1.1310    -0.7250     1.0720 h1         1 P05       0.064700
     38 H12          1.8340    -2.9310     0.2150 hc         1 P05       0.063700
     39 H12A         1.1020    -2.6420    -1.3650 hc         1 P05       0.063700
     40 H11         -0.4240    -3.0550     1.2950 hc         1 P05       0.057200
     41 H11A        -0.5820    -4.0350    -0.1680 hc         1 P05       0.057200
     42 H10         -1.5610    -2.1410    -1.4370 h1         1 P05       0.054200
     43 H10A        -2.3260    -2.0030     0.1680 h1         1 P05       0.054200
     44 H15          3.9300     1.6570    -1.1830 h1         1 P05       0.063200
     45 H15A         4.3440     0.1430    -2.0180 h1         1 P05       0.063200
     46 H17          6.0840    -1.4210    -1.0370 ha         1 P05       0.128500
     47 H18          8.1280    -1.5550     0.3920 h4         1 P05       0.021100
     48 H19          7.2270     2.0450     2.2660 h4         1 P05       0.021100
     49 H20          5.1460     2.3260     0.9140 ha         1 P05       0.128500
     50 HN23         3.1890    -0.4870     0.5220 hn         1 P05       0.321500
@<TRIPOS>BOND
     1     1     2 1   
     2     1    27 1   
     3     1    28 1   
     4     2     3 1   
     5     2     5 1   
     6     2    29 1   
     7     3     4 2   
     8     3    12 1   
     9     5     6 1   
    10     5    30 1   
    11     5    31 1   
    12     6     7 ar  
    13     6     8 ar  
    14     7     9 ar  
    15     7    32 1   
    16     8    10 ar  
    17     8    33 1   
    18     9    11 ar  
    19     9    34 1   
    20    10    11 ar  
    21    10    35 1   
    22    11    36 1   
    23    12    13 1   
    24    12    18 1   
    25    13    14 1   
    26    13    16 1   
    27    13    37 1   
    28    14    15 2   
    29    14    25 1   
    30    16    17 1   
    31    16    38 1   
    32    16    39 1   
    33    17    18 1   
    34    17    40 1   
    35    17    41 1   
    36    18    42 1   
    37    18    43 1   
    38    19    20 1   
    39    19    25 1   
    40    19    44 1   
    41    19    45 1   
    42    20    21 ar  
    43    20    24 ar  
    44    21    22 ar  
    45    21    46 1   
    46    22    26 ar  
    47    22    47 1   
    48    23    24 ar  
    49    23    26 ar  
    50    23    48 1   
    51    24    49 1   
    52    25    50 1   
@<TRIPOS>SUBSTRUCTURE
     1 P05         1 TEMP              0 ****  ****    0 ROOT
