@<TRIPOS>MOLECULE
P06
   55    58     1     0     0
SMALL
abcg2


@<TRIPOS>ATOM
      1 C1           0.0540    -3.7150    -0.6820 ca         1 P06       0.385900
      2 C2           1.8010    -2.3890    -0.0860 ca         1 P06       0.260500
      3 N3           0.6060    -2.5020    -0.6420 nb         1 P06      -0.253000
      4 C4           2.4570    -3.4960     0.4580 ca         1 P06      -0.290000
      5 N6           0.5920    -4.8360    -0.1820 nb         1 P06      -0.246000
      6 C7           1.7810    -4.7000     0.3790 ca         1 P06       0.155900
      7 N9          -1.1350    -3.8230    -1.3010 nv         1 P06      -1.067900
      8 C12          2.4000    -1.0560    -0.0620 cc         1 P06      -0.306500
      9 S13          3.8650    -0.7540     0.7970 ss         1 P06       0.000600
     10 C14          3.7800     0.9110     0.3680 cc         1 P06       0.453700
     11 N15          2.7480     1.2070    -0.3570 nd         1 P06      -0.642000
     12 C16          1.9650     0.1240    -0.6140 cd         1 P06       0.389500
     13 C17          4.8060     1.9210     0.8170 c3         1 P06      -0.079300
     14 C18          5.9390     1.2530     1.5950 c3         1 P06      -0.086767
     15 C22          5.3770     2.6130    -0.4260 c3         1 P06      -0.086767
     16 C26          4.0960     2.9460     1.7110 c3         1 P06      -0.086767
     17 C30          0.7650     0.3320    -1.4450 ca         1 P06      -0.130500
     18 C31         -1.3800     1.4400    -1.7420 ca         1 P06       0.179000
     19 C32         -0.2370     1.1700    -0.9970 ca         1 P06       0.176000
     20 C33         -1.5140     0.8420    -2.9860 ca         1 P06      -0.049000
     21 C35          0.6030    -0.2630    -2.6920 ca         1 P06      -0.037000
     22 C37         -0.5240    -0.0100    -3.4560 ca         1 P06      -0.128000
     23 F39         -0.1150     1.7460     0.2050 f          1 P06      -0.172000
     24 N40         -2.3900     2.2910    -1.2310 nu         1 P06      -0.868100
     25 S42         -3.7290     1.5720    -0.5610 sy         1 P06       1.169600
     26 C43         -3.0720     0.4720     0.6760 ca         1 P06      -0.394500
     27 C44         -2.0230     0.2090     2.8530 ca         1 P06      -0.192000
     28 C46         -2.5580     0.9990     1.8610 ca         1 P06       0.299500
     29 C47         -1.9830    -1.1630     2.6550 ca         1 P06      -0.001000
     30 C49         -3.0010    -0.9100     0.5170 ca         1 P06       0.299500
     31 C50         -2.4660    -1.7310     1.4890 ca         1 P06      -0.192000
     32 F52         -3.4460    -1.4790    -0.5980 f          1 P06      -0.150000
     33 F53         -2.5630     2.3200     2.0290 f          1 P06      -0.150000
     34 O54         -4.4760     2.6290     0.0860 o          1 P06      -0.519000
     35 O55         -4.3560     0.7760    -1.5900 o          1 P06      -0.519000
     36 H1           3.4320    -3.4420     0.9190 ha         1 P06       0.137000
     37 H2           2.2270    -5.6000     0.7890 h4         1 P06       0.022100
     38 H3          -1.6260    -2.9890    -1.5680 hn         1 P06       0.504500
     39 H4          -1.6580    -4.6790    -1.2340 hn         1 P06       0.504500
     40 H5           6.4660     0.5130     0.9890 hc         1 P06       0.044144
     41 H6           6.6690     2.0040     1.8970 hc         1 P06       0.044144
     42 H7           5.5810     0.7640     2.5040 hc         1 P06       0.044144
     43 H8           4.5940     3.1040    -1.0030 hc         1 P06       0.044144
     44 H9           6.1040     3.3700    -0.1270 hc         1 P06       0.044144
     45 H10          5.8840     1.8990    -1.0770 hc         1 P06       0.044144
     46 H11          3.6920     2.4720     2.6070 hc         1 P06       0.044144
     47 H12          4.8010     3.7170     2.0270 hc         1 P06       0.044144
     48 H13          3.2760     3.4300     1.1820 hc         1 P06       0.044144
     49 H14         -2.3880     1.0540    -3.5870 ha         1 P06       0.146000
     50 H15          1.3720    -0.9240    -3.0650 ha         1 P06       0.127000
     51 H16         -0.6310    -0.4700    -4.4280 ha         1 P06       0.127000
     52 H17         -2.0730     3.0960    -0.6990 hn         1 P06       0.506000
     53 H18         -1.6350     0.6610     3.7550 ha         1 P06       0.140500
     54 H19         -1.5630    -1.7980     3.4230 ha         1 P06       0.126000
     55 H20         -2.4260    -2.7990     1.3240 ha         1 P06       0.140500
@<TRIPOS>BOND
     1     1     3 ar  
     2     1     5 ar  
     3     1     7 1   
     4     2     3 ar  
     5     2     4 ar  
     6     2     8 1   
     7     4     6 ar  
     8     4    36 1   
     9     5     6 ar  
    10     6    37 1   
    11     7    38 1   
    12     7    39 1   
    13     8     9 1   
    14     8    12 2   
    15     9    10 1   
    16    10    11 2   
    17    10    13 1   
    18    11    12 1   
    19    12    17 1   
    20    13    14 1   
    21    13    15 1   
    22    13    16 1   
    23    14    40 1   
    24    14    41 1   
    25    14    42 1   
    26    15    43 1   
    27    15    44 1   
    28    15    45 1   
    29    16    46 1   
    30    16    47 1   
    31    16    48 1   
    32    17    19 ar  
    33    17    21 ar  
    34    18    19 ar  
    35    18    20 ar  
    36    18    24 1   
    37    19    23 1   
    38    20    22 ar  
    39    20    49 1   
    40    21    22 ar  
    41    21    50 1   
    42    22    51 1   
    43    24    25 1   
    44    24    52 1   
    45    25    26 1   
    46    25    34 2   
    47    25    35 2   
    48    26    28 ar  
    49    26    30 ar  
    50    27    28 ar  
    51    27    29 ar  
    52    27    53 1   
    53    28    33 1   
    54    29    31 ar  
    55    29    54 1   
    56    30    31 ar  
    57    30    32 1   
    58    31    55 1   
@<TRIPOS>SUBSTRUCTURE
     1 P06         1 TEMP              0 ****  ****    0 ROOT
