@<TRIPOS>MOLECULE
P06
   55    58     1     0     0
SMALL
No Charge or Current Charge


@<TRIPOS>ATOM
      1 C1           1.0100    -3.8870     0.2020 ca         1 P06       0.385900
      2 C2           2.6220    -2.3640    -0.3670 ca         1 P06       0.260500
      3 N3           1.4260    -2.6130     0.2090 nb         1 P06      -0.253000
      4 C4           3.3760    -3.4120    -0.9240 ca         1 P06      -0.290000
      5 N6           1.6440    -4.9520    -0.3080 nb         1 P06      -0.246000
      6 C7           2.8410    -4.7100    -0.8750 ca         1 P06       0.155900
      7 N9          -0.1940    -4.1250     0.7760 nv         1 P06      -1.067900
      8 C12          3.1490    -1.0000    -0.3840 cc         1 P06      -0.306500
      9 S13          4.7930    -0.6320     0.0380 ss         1 P06       0.000600
     10 C14          4.3130     1.0440     0.1560 cc         1 P06       0.453700
     11 N15          3.0410     1.2970    -0.1310 nd         1 P06      -0.642000
     12 C16          2.3420     0.1270    -0.3970 cd         1 P06       0.389500
     13 C17          5.3380     2.1240     0.5150 c3         1 P06      -0.079300
     14 C18          6.0010     1.7890     1.8800 c3         1 P06      -0.086767
     15 C22          6.4340     2.1900    -0.5830 c3         1 P06      -0.086767
     16 C26          4.6770     3.5300     0.6320 c3         1 P06      -0.086767
     17 C30          0.9420     0.2220    -0.8860 ca         1 P06      -0.130500
     18 C31         -1.2560     1.3570    -0.9530 ca         1 P06       0.179000
     19 C32          0.0620     1.2440    -0.4410 ca         1 P06       0.176000
     20 C33         -1.6800     0.4560    -1.9480 ca         1 P06      -0.049000
     21 C35          0.4880    -0.6480    -1.9040 ca         1 P06      -0.037000
     22 C37         -0.8100    -0.5360    -2.4220 ca         1 P06      -0.128000
     23 F39          0.4390     2.0910     0.5500 f          1 P06      -0.172000
     24 N40         -2.1180     2.3500    -0.4540 nu         1 P06      -0.868100
     25 S42         -3.7840     2.3100    -0.2660 sy         1 P06       1.169600
     26 C43         -4.1080     0.7310     0.4910 ca         1 P06      -0.394500
     27 C44         -3.7720    -0.7870     2.3700 ca         1 P06      -0.192000
     28 C46         -3.5510     0.4520     1.7510 ca         1 P06       0.299500
     29 C47         -4.5540    -1.7650     1.7380 ca         1 P06      -0.001000
     30 C49         -4.8920    -0.2520    -0.1410 ca         1 P06       0.299500
     31 C50         -5.1130    -1.4910     0.4810 ca         1 P06      -0.192000
     32 F52         -5.4580    -0.0440    -1.3490 f          1 P06      -0.150000
     33 F53         -2.7780     1.3570     2.3910 f          1 P06      -0.150000
     34 O54         -4.0070     3.3750     0.7110 o          1 P06      -0.519000
     35 O55         -4.3100     2.3890    -1.6300 o          1 P06      -0.519000
     36 H1           4.3410    -3.2280    -1.3870 ha         1 P06       0.137000
     37 H2           3.3730    -5.5620    -1.2940 h4         1 P06       0.022100
     38 H3          -0.8020    -3.3340     0.9710 hn         1 P06       0.504500
     39 H4          -0.6490    -5.0190     0.6030 hn         1 P06       0.504500
     40 H5           6.5540     0.8430     1.8370 hc         1 P06       0.044144
     41 H6           6.7110     2.5730     2.1750 hc         1 P06       0.044144
     42 H7           5.2450     1.7040     2.6700 hc         1 P06       0.044144
     43 H8           5.9900     2.4070    -1.5620 hc         1 P06       0.044144
     44 H9           7.1660     2.9770    -0.3610 hc         1 P06       0.044144
     45 H10          6.9780     1.2420    -0.6620 hc         1 P06       0.044144
     46 H11          3.8970     3.5360     1.4030 hc         1 P06       0.044144
     47 H12          5.4180     4.2930     0.8990 hc         1 P06       0.044144
     48 H13          4.2180     3.8310    -0.3180 hc         1 P06       0.044144
     49 H14         -2.6770     0.5250    -2.3720 ha         1 P06       0.146000
     50 H15          1.1500    -1.4010    -2.3240 ha         1 P06       0.127000
     51 H16         -1.1400    -1.2160    -3.2050 ha         1 P06       0.127000
     52 H17         -1.7800     2.8960     0.3290 hn         1 P06       0.506000
     53 H18         -3.3310    -0.9880     3.3430 ha         1 P06       0.140500
     54 H19         -4.7270    -2.7260     2.2190 ha         1 P06       0.126000
     55 H20         -5.7210    -2.2400    -0.0170 ha         1 P06       0.140500
@<TRIPOS>BOND
     1     1     3 ar  
     2     1     5 ar  
     3     1     7 1   
     4     2     3 ar  
     5     2     4 ar  
     6     2     8 1   
     7     4     6 ar  
     8     4    36 1   
     9     5     6 ar  
    10     6    37 1   
    11     7    38 1   
    12     7    39 1   
    13     8     9 1   
    14     8    12 2   
    15     9    10 1   
    16    10    11 2   
    17    10    13 1   
    18    11    12 1   
    19    12    17 1   
    20    13    14 1   
    21    13    15 1   
    22    13    16 1   
    23    14    40 1   
    24    14    41 1   
    25    14    42 1   
    26    15    43 1   
    27    15    44 1   
    28    15    45 1   
    29    16    46 1   
    30    16    47 1   
    31    16    48 1   
    32    17    19 ar  
    33    17    21 ar  
    34    18    19 ar  
    35    18    20 ar  
    36    18    24 1   
    37    19    23 1   
    38    20    22 ar  
    39    20    49 1   
    40    21    22 ar  
    41    21    50 1   
    42    22    51 1   
    43    24    25 1   
    44    24    52 1   
    45    25    26 1   
    46    25    34 2   
    47    25    35 2   
    48    26    28 ar  
    49    26    30 ar  
    50    27    28 ar  
    51    27    29 ar  
    52    27    53 1   
    53    28    33 1   
    54    29    31 ar  
    55    29    54 1   
    56    30    31 ar  
    57    30    32 1   
    58    31    55 1   
@<TRIPOS>SUBSTRUCTURE
     1 P06         1 TEMP              0 ****  ****    0 ROOT
