@<TRIPOS>MOLECULE
P08
   51    54     1     0     0
SMALL
abcg2


@<TRIPOS>ATOM
      1 CAN        -35.9120   -24.0860    47.9530 c6         1 P08       0.185800
      2 CAL        -36.7080   -24.3630    46.6880 c6         1 P08       0.139600
      3 OAQ        -37.2500   -23.1700    46.1340 os         1 P08      -0.445000
      4 CAM        -38.1310   -22.5580    47.0690 c6         1 P08       0.139600
      5 CAO        -37.4140   -22.1810    48.3530 c6         1 P08       0.185800
      6 NBA        -36.7290   -23.3480    48.9170 nh         1 P08      -0.677400
      7 CAU        -36.4800   -23.4520    50.2420 cc         1 P08       0.401100
      8 CAJ        -35.6210   -24.3470    50.8360 cd         1 P08      -0.495200
      9 CAW        -35.4980   -24.4430    52.2490 c          1 P08       0.606900
     10 OAC        -34.7440   -25.2560    52.8180 o          1 P08      -0.576100
     11 OAR        -37.1960   -22.5740    50.9740 os         1 P08      -0.258200
     12 CAY        -37.1290   -22.5790    52.3490 ca         1 P08       0.165100
     13 CAX        -36.3280   -23.4960    53.0230 ca         1 P08      -0.200600
     14 CAK        -36.3120   -23.4850    54.4210 ca         1 P08      -0.027000
     15 CAS        -37.0730   -22.5800    55.1380 ca         1 P08      -0.103300
     16 CAA        -37.0730   -22.5610    56.6430 c3         1 P08      -0.042800
     17 CAI        -37.8450   -21.6580    54.4190 ca         1 P08      -0.063000
     18 CAV        -37.8920   -21.6260    53.0330 ca         1 P08      -0.137300
     19 CAZ        -38.7420   -20.5650    52.3440 c3         1 P08       0.278800
     20 CAB        -40.0080   -21.1570    51.7240 c3         1 P08      -0.096100
     21 NAP        -38.0290   -19.7920    51.3340 nu         1 P08      -0.941200
     22 CAT        -36.8050   -19.1910    51.5810 ca         1 P08       0.303000
     23 CAG        -36.4060   -18.8000    52.8680 ca         1 P08      -0.173500
     24 CAE        -35.1880   -18.1570    53.0610 ca         1 P08      -0.071500
     25 CAD        -34.3400   -17.8890    51.9920 ca         1 P08      -0.153000
     26 CAF        -34.7300   -18.2790    50.7110 ca         1 P08      -0.071500
     27 CAH        -35.9400   -18.9250    50.5070 ca         1 P08      -0.173500
     28 HAN1       -35.6070   -25.0390    48.3750 h1         1 P08       0.062700
     29 HAN2       -35.0120   -23.5070    47.7150 h1         1 P08       0.062700
     30 HAL1       -36.0540   -24.8000    45.9350 h1         1 P08       0.060450
     31 HAL2       -37.5200   -25.0670    46.9100 h1         1 P08       0.060450
     32 HAM1       -38.5280   -21.6600    46.5970 h1         1 P08       0.060450
     33 HAM2       -38.9600   -23.2410    47.2930 h1         1 P08       0.060450
     34 HAO1       -36.6850   -21.3860    48.1580 h1         1 P08       0.062700
     35 HAO2       -38.1500   -21.8160    49.0600 h1         1 P08       0.062700
     36 HAJ        -35.0270   -25.0150    50.2350 ha         1 P08       0.210000
     37 HAK        -35.6820   -24.2040    54.9280 ha         1 P08       0.142000
     38 HAA1       -36.7930   -21.5760    57.0220 hc         1 P08       0.045700
     39 HAA2       -38.0670   -22.7870    57.0360 hc         1 P08       0.045700
     40 HAA3       -36.3740   -23.2950    57.0440 hc         1 P08       0.045700
     41 HAI        -38.4240   -20.9200    54.9640 ha         1 P08       0.115000
     42 HAZ        -39.0550   -19.8750    53.1320 h1         1 P08       0.062700
     43 HAB1       -40.6200   -20.3630    51.2940 hc         1 P08       0.046367
     44 HAB2       -39.7630   -21.8740    50.9390 hc         1 P08       0.046367
     45 HAB3       -40.5890   -21.6720    52.4880 hc         1 P08       0.046367
     46 HAP        -38.1070   -20.1660    50.4020 hn         1 P08       0.455000
     47 HAG        -37.0440   -18.9920    53.7180 ha         1 P08       0.106500
     48 HAH        -36.2310   -19.2330    49.5090 ha         1 P08       0.106500
     49 HAE        -34.9030   -17.8650    54.0640 ha         1 P08       0.109000
     50 HAD        -33.3920   -17.3900    52.1510 ha         1 P08       0.113000
     51 HAF        -34.0830   -18.0870    49.8640 ha         1 P08       0.109000
@<TRIPOS>BOND
     1     1     2 1   
     2     1     6 1   
     3     1    28 1   
     4     1    29 1   
     5     2     3 1   
     6     2    30 1   
     7     2    31 1   
     8     3     4 1   
     9     4     5 1   
    10     4    32 1   
    11     4    33 1   
    12     5     6 1   
    13     5    34 1   
    14     5    35 1   
    15     6     7 1   
    16     7     8 2   
    17     7    11 1   
    18     8     9 1   
    19     8    36 1   
    20     9    10 2   
    21     9    13 1   
    22    11    12 1   
    23    12    13 ar  
    24    12    18 ar  
    25    13    14 ar  
    26    14    15 ar  
    27    14    37 1   
    28    15    16 1   
    29    15    17 ar  
    30    16    38 1   
    31    16    39 1   
    32    16    40 1   
    33    17    18 ar  
    34    17    41 1   
    35    18    19 1   
    36    19    20 1   
    37    19    21 1   
    38    19    42 1   
    39    20    43 1   
    40    20    44 1   
    41    20    45 1   
    42    21    22 1   
    43    21    46 1   
    44    22    23 ar  
    45    22    27 ar  
    46    23    24 ar  
    47    23    47 1   
    48    24    25 ar  
    49    24    49 1   
    50    25    26 ar  
    51    25    50 1   
    52    26    27 ar  
    53    26    51 1   
    54    27    48 1   
@<TRIPOS>SUBSTRUCTURE
     1 P08         1 TEMP              0 ****  ****    0 ROOT
