@<TRIPOS>MOLECULE
P08
   51    54     1     0     0
SMALL
No Charge or Current Charge


@<TRIPOS>ATOM
      1 CAN        -36.3720   -24.6980    47.8350 c6         1 P08       0.185800
      2 CAL        -37.4300   -24.9200    46.7150 c6         1 P08       0.139600
      3 OAQ        -37.6940   -23.6920    45.9990 os         1 P08      -0.445000
      4 CAM        -38.2010   -22.6480    46.8620 c6         1 P08       0.139600
      5 CAO        -37.1740   -22.3080    47.9790 c6         1 P08       0.185800
      6 NBA        -36.7110   -23.5310    48.7180 nh         1 P08      -0.677400
      7 CAU        -36.4230   -23.5080    50.0690 cc         1 P08       0.401100
      8 CAJ        -35.5550   -24.3790    50.6720 cd         1 P08      -0.495200
      9 CAW        -35.3060   -24.3870    52.0920 c          1 P08       0.606900
     10 OAC        -34.4970   -25.1500    52.6020 o          1 P08      -0.576100
     11 OAR        -36.9220   -22.4340    50.7840 os         1 P08      -0.258200
     12 CAY        -36.9340   -22.5310    52.1710 ca         1 P08       0.165100
     13 CAX        -36.1300   -23.4470    52.8690 ca         1 P08      -0.200600
     14 CAK        -36.1210   -23.4690    54.2780 ca         1 P08      -0.027000
     15 CAS        -36.9130   -22.5660    55.0030 ca         1 P08      -0.103300
     16 CAA        -36.9070   -22.5870    56.5250 c3         1 P08      -0.042800
     17 CAI        -37.7150   -21.6450    54.3110 ca         1 P08      -0.063000
     18 CAV        -37.7330   -21.6120    52.9010 ca         1 P08      -0.137300
     19 CAZ        -38.6200   -20.5640    52.2170 c3         1 P08       0.278800
     20 CAB        -39.7500   -21.1800    51.3670 c3         1 P08      -0.096100
     21 NAP        -37.8120   -19.6490    51.4030 nu         1 P08      -0.941200
     22 CAT        -36.7430   -18.8940    51.8820 ca         1 P08       0.303000
     23 CAG        -36.8020   -18.2560    53.1350 ca         1 P08      -0.173500
     24 CAE        -35.7070   -17.5060    53.5990 ca         1 P08      -0.071500
     25 CAD        -34.5520   -17.3900    52.8080 ca         1 P08      -0.153000
     26 CAF        -34.4910   -18.0220    51.5550 ca         1 P08      -0.071500
     27 CAH        -35.5880   -18.7720    51.0940 ca         1 P08      -0.173500
     28 HAN1       -36.3100   -25.6270    48.4180 h1         1 P08       0.062700
     29 HAN2       -35.3880   -24.5400    47.3710 h1         1 P08       0.062700
     30 HAL1       -37.0690   -25.6800    46.0080 h1         1 P08       0.060450
     31 HAL2       -38.3670   -25.2870    47.1590 h1         1 P08       0.060450
     32 HAM1       -38.4070   -21.7510    46.2600 h1         1 P08       0.060450
     33 HAM2       -39.1480   -22.9790    47.3140 h1         1 P08       0.060450
     34 HAO1       -36.3090   -21.8070    47.5200 h1         1 P08       0.062700
     35 HAO2       -37.6410   -21.5780    48.6540 h1         1 P08       0.062700
     36 HAJ        -35.0160   -25.1380    50.1270 ha         1 P08       0.210000
     37 HAK        -35.4990   -24.1870    54.8100 ha         1 P08       0.142000
     38 HAA1       -37.0690   -21.5840    56.9390 hc         1 P08       0.045700
     39 HAA2       -37.6980   -23.2400    56.9100 hc         1 P08       0.045700
     40 HAA3       -35.9500   -22.9520    56.9180 hc         1 P08       0.045700
     41 HAI        -38.3260   -20.9440    54.8770 ha         1 P08       0.115000
     42 HAZ        -39.1180   -19.9770    53.0020 h1         1 P08       0.062700
     43 HAB1       -40.4110   -20.3940    50.9820 hc         1 P08       0.046367
     44 HAB2       -39.3630   -21.7470    50.5140 hc         1 P08       0.046367
     45 HAB3       -40.3550   -21.8580    51.9800 hc         1 P08       0.046367
     46 HAP        -37.6650   -19.9780    50.4520 hn         1 P08       0.455000
     47 HAG        -37.6920   -18.3360    53.7500 ha         1 P08       0.106500
     48 HAH        -35.5340   -19.2620    50.1270 ha         1 P08       0.106500
     49 HAE        -35.7560   -17.0150    54.5690 ha         1 P08       0.109000
     50 HAD        -33.7040   -16.8100    53.1660 ha         1 P08       0.113000
     51 HAF        -33.5960   -17.9330    50.9420 ha         1 P08       0.109000
@<TRIPOS>BOND
     1     1     2 1   
     2     1     6 1   
     3     1    28 1   
     4     1    29 1   
     5     2     3 1   
     6     2    30 1   
     7     2    31 1   
     8     3     4 1   
     9     4     5 1   
    10     4    32 1   
    11     4    33 1   
    12     5     6 1   
    13     5    34 1   
    14     5    35 1   
    15     6     7 1   
    16     7     8 2   
    17     7    11 1   
    18     8     9 1   
    19     8    36 1   
    20     9    10 2   
    21     9    13 1   
    22    11    12 1   
    23    12    13 ar  
    24    12    18 ar  
    25    13    14 ar  
    26    14    15 ar  
    27    14    37 1   
    28    15    16 1   
    29    15    17 ar  
    30    16    38 1   
    31    16    39 1   
    32    16    40 1   
    33    17    18 ar  
    34    17    41 1   
    35    18    19 1   
    36    19    20 1   
    37    19    21 1   
    38    19    42 1   
    39    20    43 1   
    40    20    44 1   
    41    20    45 1   
    42    21    22 1   
    43    21    46 1   
    44    22    23 ar  
    45    22    27 ar  
    46    23    24 ar  
    47    23    47 1   
    48    24    25 ar  
    49    24    49 1   
    50    25    26 ar  
    51    25    50 1   
    52    26    27 ar  
    53    26    51 1   
    54    27    48 1   
@<TRIPOS>SUBSTRUCTURE
     1 P08         1 TEMP              0 ****  ****    0 ROOT
