@<TRIPOS>MOLECULE
P09
   45    47     1     0     0
SMALL
No Charge or Current Charge


@<TRIPOS>ATOM
      1 CAA         -7.8330     1.9240     0.6340 c3         1 P09      -0.034800
      2 CAB         -7.8940    -1.0720     0.7340 c3         1 P09      -0.043800
      3 OAC          4.6490    -1.6750    -1.6810 o          1 P09      -0.705000
      4 OAD          2.2380     1.4860     1.6510 o          1 P09      -0.592100
      5 OAE          3.9770    -1.9670     0.3470 o          1 P09      -0.705000
      6 CAF          7.0570     1.4690     0.0660 ca         1 P09      -0.127000
      7 CAG          6.2930     2.4540     0.7020 ca         1 P09      -0.144000
      8 CAH          6.4520     0.2740    -0.3480 ca         1 P09      -0.091000
      9 CAI          4.9190     2.2530     0.9060 ca         1 P09      -0.110000
     10 CAJ         -5.4860     1.7490    -0.3050 ca         1 P09      -0.076000
     11 CAK         -0.2780     0.1760     0.5630 ca         1 P09      -0.155500
     12 CAL          0.2970    -0.6880    -1.6340 ca         1 P09      -0.155500
     13 CAM         -4.3710     1.0110    -0.7310 ca         1 P09      -0.180000
     14 CAN         -1.6230    -0.1770     0.3470 ca         1 P09      -0.088500
     15 CAO         -1.0470    -1.0400    -1.8510 ca         1 P09      -0.088500
     16 CAP         -5.5400    -1.0540    -0.2050 ca         1 P09      -0.146000
     17 OAR         -3.3190    -1.1420    -1.0960 os         1 P09      -0.248200
     18 CAT          2.7750     0.9550     0.6820 c          1 P09       0.678700
     19 CAU         -6.6370     1.0930     0.1780 ca         1 P09      -0.123300
     20 CAV         -6.6660    -0.3220     0.2260 ca         1 P09      -0.049300
     21 CAW          0.6950    -0.0710    -0.4320 ca         1 P09       0.031000
     22 CAX         -2.0110    -0.7750    -0.8670 ca         1 P09       0.025100
     23 CAY         -4.3940    -0.3930    -0.6710 ca         1 P09       0.148100
     24 CAZ          5.0720     0.0490    -0.1440 ca         1 P09      -0.106600
     25 CBA          4.2790     1.0670     0.4730 ca         1 P09      -0.134600
     26 HAA         -8.7250     1.6930     0.0390 hc         1 P09       0.032700
     27 HAAA        -8.0700     1.7300     1.6870 hc         1 P09       0.032700
     28 HAAB        -7.6440     2.9990     0.5350 hc         1 P09       0.032700
     29 HAB         -8.7770    -0.8420     0.1260 hc         1 P09       0.037033
     30 HABA        -7.7500    -2.1590     0.7030 hc         1 P09       0.037033
     31 HABB        -8.1190    -0.8030     1.7730 hc         1 P09       0.037033
     32 HAF          8.1220     1.6240    -0.0940 ha         1 P09       0.090000
     33 HAG          6.7620     3.3780     1.0320 ha         1 P09       0.090000
     34 HAH          7.0610    -0.4980    -0.8160 ha         1 P09       0.133000
     35 HAI          4.3410     3.0390     1.3880 ha         1 P09       0.098000
     36 HAJ         -5.4550     2.8360    -0.3530 ha         1 P09       0.105000
     37 HAK         -0.0150     0.6290     1.5130 ha         1 P09       0.134000
     38 HAL          1.0320    -0.8960    -2.4090 ha         1 P09       0.134000
     39 HAM         -3.4940     1.5290    -1.1110 ha         1 P09       0.134000
     40 HAN         -2.3580     0.0090     1.1270 ha         1 P09       0.115500
     41 HAO         -1.3410    -1.5160    -2.7840 ha         1 P09       0.115500
     42 HAP         -5.5490    -2.1400    -0.1760 ha         1 P09       0.123000
     43 HNAQ         2.6480    -0.0870    -1.0460 hn         1 P09       0.157000
     44 NAQ          2.0720     0.2540    -0.2890 ns         1 P09      -0.125000
     45 CAS          4.5210    -1.3060    -0.5240 c          1 P09       0.707600
@<TRIPOS>BOND
     1     1    19 1   
     2     1    26 1   
     3     1    27 1   
     4     1    28 1   
     5     2    20 1   
     6     2    29 1   
     7     2    30 1   
     8     2    31 1   
     9     3    45 1   
    10     4    18 2   
    11     5    45 1   
    12     6     7 ar  
    13     6     8 ar  
    14     6    32 1   
    15     7     9 ar  
    16     7    33 1   
    17     8    24 ar  
    18     8    34 1   
    19     9    25 ar  
    20     9    35 1   
    21    10    13 ar  
    22    10    19 ar  
    23    10    36 1   
    24    11    14 ar  
    25    11    21 ar  
    26    11    37 1   
    27    12    15 ar  
    28    12    21 ar  
    29    12    38 1   
    30    13    23 ar  
    31    13    39 1   
    32    14    22 ar  
    33    14    40 1   
    34    15    22 ar  
    35    15    41 1   
    36    16    20 ar  
    37    16    23 ar  
    38    16    42 1   
    39    17    22 1   
    40    17    23 1   
    41    18    25 1   
    42    18    44 1   
    43    19    20 ar  
    44    21    44 1   
    45    24    25 ar  
    46    24    45 1   
    47    43    44 1   
@<TRIPOS>SUBSTRUCTURE
     1 P09         1 TEMP              0 ****  ****    0 ROOT
