@<TRIPOS>MOLECULE
P09
   45    47     1     0     0
SMALL
bcc


@<TRIPOS>ATOM
      1 CAA         -7.6330     2.1750     0.0380 c3         1 P09      -0.034800
      2 CAB         -8.0810    -0.7240    -0.0630 c3         1 P09      -0.043800
      3 OAC          5.9370    -2.1120    -1.0360 o          1 P09      -0.810300
      4 OAD          2.7610     0.1360     1.9850 o          1 P09      -0.592100
      5 OAE          4.0120    -1.9420     0.0770 o          1 P09      -0.810300
      6 CAF          6.6280     1.9870    -0.5950 ca         1 P09      -0.145000
      7 CAG          5.6450     2.7790    -0.0190 ca         1 P09      -0.162000
      8 CAH          6.4230     0.6230    -0.7320 ca         1 P09      -0.109000
      9 CAI          4.4620     2.1980     0.4130 ca         1 P09      -0.128000
     10 CAJ         -5.1700     1.6850     0.0720 ca         1 P09      -0.094000
     11 CAK          0.0390    -0.5220     1.1630 ca         1 P09      -0.173500
     12 CAL         -0.0520    -0.3760    -1.2340 ca         1 P09      -0.173500
     13 CAM         -4.0730     0.8300     0.0670 ca         1 P09      -0.198000
     14 CAN         -1.2910    -0.9210     1.1720 ca         1 P09      -0.106500
     15 CAO         -1.3760    -0.7730    -1.2200 ca         1 P09      -0.106500
     16 CAP         -5.5980    -1.0280    -0.0230 ca         1 P09      -0.164000
     17 OAR         -3.3030    -1.4730     0.0100 os         1 P09      -0.248200
     18 CAT          2.9540     0.2920     0.7930 c          1 P09       0.745700
     19 CAU         -6.4760     1.2190     0.0310 ca         1 P09      -0.123300
     20 CAV         -6.6880    -0.1690    -0.0170 ca         1 P09      -0.049300
     21 CAW          0.6750    -0.2370    -0.0470 ca         1 P09       0.123600
     22 CAX         -1.9970    -1.0480    -0.0110 ca         1 P09       0.025100
     23 CAY         -4.2960    -0.5370     0.0180 ca         1 P09       0.148100
     24 CAZ          5.2420     0.0230    -0.3010 ca         1 P09      -0.106600
     25 CBA          4.2570     0.8280     0.2710 ca         1 P09      -0.134600
     26 HAA         -8.2610     2.0600    -0.8480 hc         1 P09       0.032700
     27 HAAA        -8.2810     2.0220     0.9030 hc         1 P09       0.032700
     28 HAAB        -7.2870     3.2080     0.0640 hc         1 P09       0.032700
     29 HAB         -8.6240    -0.3690    -0.9420 hc         1 P09       0.037033
     30 HABA        -8.0770    -1.8130    -0.0920 hc         1 P09       0.037033
     31 HABB        -8.6620    -0.4170     0.8090 hc         1 P09       0.037033
     32 HAF          7.5540     2.4320    -0.9360 ha         1 P09       0.108000
     33 HAG          5.7950     3.8450     0.0930 ha         1 P09       0.108000
     34 HAH          7.1910     0.0050    -1.1790 ha         1 P09       0.151000
     35 HAI          3.6930     2.8160     0.8600 ha         1 P09       0.116000
     36 HAJ         -4.9920     2.7530     0.1100 ha         1 P09       0.123000
     37 HAK          0.5640    -0.4290     2.0990 ha         1 P09       0.152000
     38 HAL          0.4250    -0.1640    -2.1840 ha         1 P09       0.152000
     39 HAM         -3.0730     1.2420     0.1020 ha         1 P09       0.152000
     40 HAN         -1.7740    -1.1380     2.1170 ha         1 P09       0.133500
     41 HAO         -1.9190    -0.8750    -2.1510 ha         1 P09       0.133500
     42 HAP         -5.7560    -2.1000    -0.0610 ha         1 P09       0.141000
     43 HNAQ         2.3090     0.3470    -1.1090 hn         1 P09       0.323500
     44 NAQ          1.9940     0.1970    -0.1630 ns         1 P09      -0.451100
     45 CAS          5.0490    -1.4810    -0.4370 c          1 P09       0.918200
@<TRIPOS>BOND
     1     1    19 1   
     2     1    26 1   
     3     1    27 1   
     4     1    28 1   
     5     2    20 1   
     6     2    29 1   
     7     2    30 1   
     8     2    31 1   
     9     3    45 1   
    10     4    18 2   
    11     5    45 1   
    12     6     7 ar  
    13     6     8 ar  
    14     6    32 1   
    15     7     9 ar  
    16     7    33 1   
    17     8    24 ar  
    18     8    34 1   
    19     9    25 ar  
    20     9    35 1   
    21    10    13 ar  
    22    10    19 ar  
    23    10    36 1   
    24    11    14 ar  
    25    11    21 ar  
    26    11    37 1   
    27    12    15 ar  
    28    12    21 ar  
    29    12    38 1   
    30    13    23 ar  
    31    13    39 1   
    32    14    22 ar  
    33    14    40 1   
    34    15    22 ar  
    35    15    41 1   
    36    16    20 ar  
    37    16    23 ar  
    38    16    42 1   
    39    17    22 1   
    40    17    23 1   
    41    18    25 1   
    42    18    44 1   
    43    19    20 ar  
    44    21    44 1   
    45    24    25 ar  
    46    24    45 1   
    47    43    44 1   
@<TRIPOS>SUBSTRUCTURE
     1 P09         1 TEMP              0 ****  ****    0 ROOT
