@<TRIPOS>MOLECULE
P0A
   23    22     1     0     0
SMALL
bcc


@<TRIPOS>ATOM
      1 C           18.3700     5.9360    16.9170 c          1 P0A       0.941600
      2 N           19.5610     3.8200    16.5670 n8         1 P0A      -0.881800
      3 O           17.7080     5.7430    15.8750 o          1 P0A      -0.849300
      4 CA          18.9590     4.6750    17.5870 c3         1 P0A       0.011500
      5 CB          17.8780     3.9580    18.4070 c3         1 P0A      -0.080400
      6 OAB         14.0040     4.7290    23.1960 o          1 P0A      -0.865800
      7 OAD         14.6440     2.7680    22.3510 o          1 P0A      -0.865800
      8 CAF         16.3380     3.9470    20.4230 c3         1 P0A      -0.056400
      9 CAG         17.2720     4.7730    19.5450 c3         1 P0A      -0.073400
     10 CAH         15.6890     4.7600    21.5310 c3         1 P0A      -0.199400
     11 CAJ         14.6880     4.0120    22.4350 c          1 P0A       0.925600
     12 OXT         18.5730     7.0290    17.4810 o          1 P0A      -0.849300
     13 HN          19.7500     2.9050    16.9610 hn         1 P0A       0.312300
     14 HNA         18.8690     3.6750    15.8410 hn         1 P0A       0.312300
     15 HA          19.7500     4.9870    18.2770 h1         1 P0A       0.039700
     16 HB          17.0820     3.6270    17.7300 hc         1 P0A       0.008700
     17 HBA         18.3190     3.0450    18.8250 hc         1 P0A       0.008700
     18 HAF         15.5630     3.4990    19.7930 hc         1 P0A       0.024700
     19 HAFA        16.8960     3.1090    20.8520 hc         1 P0A       0.024700
     20 HAG         18.0750     5.1930    20.1620 hc         1 P0A       0.039200
     21 HAGA        16.7230     5.6300    19.1440 hc         1 P0A       0.039200
     22 HAH         16.4700     5.1860    22.1740 hc         1 P0A       0.015700
     23 HAHA        15.1800     5.6290    21.0990 hc         1 P0A       0.015700
@<TRIPOS>BOND
     1     1     3 1   
     2     1     4 1   
     3     1    12 1   
     4     2     4 1   
     5     2    13 1   
     6     2    14 1   
     7     4     5 1   
     8     4    15 1   
     9     5     9 1   
    10     5    16 1   
    11     5    17 1   
    12     6    11 1   
    13     7    11 1   
    14     8     9 1   
    15     8    10 1   
    16     8    18 1   
    17     8    19 1   
    18     9    20 1   
    19     9    21 1   
    20    10    11 1   
    21    10    22 1   
    22    10    23 1   
@<TRIPOS>SUBSTRUCTURE
     1 P0A         1 TEMP              0 ****  ****    0 ROOT
