@<TRIPOS>MOLECULE
P0A
   23    22     1     0     0
SMALL
No Charge or Current Charge


@<TRIPOS>ATOM
      1 C           18.4180     6.0980    16.9950 c          1 P0A       0.731000
      2 N           19.4690     3.7370    16.4900 n8         1 P0A      -0.992200
      3 O           17.5410     6.1290    16.1390 o          1 P0A      -0.744000
      4 CA          18.9170     4.6850    17.5250 c3         1 P0A       0.011500
      5 CB          17.8250     3.9540    18.3540 c3         1 P0A      -0.080400
      6 OAB         13.5570     4.0390    22.1130 o          1 P0A      -0.760500
      7 OAD         15.1440     3.2220    23.3140 o          1 P0A      -0.760500
      8 CAF         16.2740     3.9870    20.4160 c3         1 P0A      -0.056400
      9 CAG         17.3150     4.7590    19.5730 c3         1 P0A      -0.073400
     10 CAH         15.7620     4.7890    21.6370 c3         1 P0A      -0.199400
     11 CAJ         14.7340     3.9590    22.4300 c          1 P0A       0.715000
     12 OXT         18.9950     7.1040    17.3900 o          1 P0A      -0.744000
     13 HN          19.6110     2.8160    16.9200 hn         1 P0A       0.367500
     14 HNA         18.7440     3.5710    15.7810 hn         1 P0A       0.367500
     15 HA          19.7450     4.8950    18.2170 h1         1 P0A       0.039700
     16 HB          16.9740     3.7150    17.7040 hc         1 P0A       0.008700
     17 HBA         18.2270     2.9980    18.7130 hc         1 P0A       0.008700
     18 HAF         15.4220     3.7200    19.7780 hc         1 P0A       0.024700
     19 HAFA        16.7190     3.0470    20.7640 hc         1 P0A       0.024700
     20 HAG         18.1670     5.0250    20.2100 hc         1 P0A       0.039200
     21 HAGA        16.8660     5.6990    19.2300 hc         1 P0A       0.039200
     22 HAH         16.6460     4.9940    22.2540 hc         1 P0A       0.015700
     23 HAHA        15.2910     5.6920    21.2280 hc         1 P0A       0.015700
@<TRIPOS>BOND
     1     1     3 1   
     2     1     4 1   
     3     1    12 1   
     4     2     4 1   
     5     2    13 1   
     6     2    14 1   
     7     4     5 1   
     8     4    15 1   
     9     5     9 1   
    10     5    16 1   
    11     5    17 1   
    12     6    11 1   
    13     7    11 1   
    14     8     9 1   
    15     8    10 1   
    16     8    18 1   
    17     8    19 1   
    18     9    20 1   
    19     9    21 1   
    20    10    11 1   
    21    10    22 1   
    22    10    23 1   
@<TRIPOS>SUBSTRUCTURE
     1 P0A         1 TEMP              0 ****  ****    0 ROOT
