@<TRIPOS>MOLECULE
P0B
   33    34     1     0     0
SMALL
No Charge or Current Charge


@<TRIPOS>ATOM
      1 CAA          0.6490    -4.8540     4.7300 c3         1 P0B       0.157100
      2 CAF         -0.9410     1.3530     6.1460 ca         1 P0B      -0.066000
      3 CAG         -0.0110     0.7580     7.0120 ca         1 P0B      -0.146000
      4 CAH         -1.6590     0.5530     5.2440 ca         1 P0B      -0.122000
      5 CAI          2.8490    -0.3400     4.8580 cc         1 P0B      -0.398200
      6 CAJ          1.9930    -2.7870     4.8710 c3         1 P0B       0.188000
      7 CAK         -0.2380    -2.9470     6.0000 c3         1 P0B       0.220100
      8 CAN          0.2030    -0.6290     6.9710 ca         1 P0B       0.185000
      9 CAO         -1.4470    -0.8360     5.2000 ca         1 P0B       0.152000
     10 CAP          2.0510    -1.3500     4.3840 cd         1 P0B       0.113400
     11 CAQ         -0.5040    -1.4440     6.0600 ca         1 P0B      -0.134300
     12 CAR          2.7670     1.0140     4.3130 c          1 P0B       0.593200
     13 CAS          1.0300     0.1970     2.8050 c          1 P0B       0.616000
     14 NAL          1.1850    -1.0320     3.3650 ns         1 P0B      -0.503600
     15 NAM          1.8480     1.1520     3.3190 ns         1 P0B      -0.472500
     16 NAT          0.6190    -3.3790     4.8580 n3         1 P0B      -0.740600
     17 OAB          3.4480     1.9470     4.7000 o          1 P0B      -0.537000
     18 OAC          0.2270     0.4190     1.9200 o          1 P0B      -0.556000
     19 Cl1         -2.3680    -1.7840     4.0320 cl         1 P0B      -0.184000
     20 H1          -0.3680    -5.2580     4.6430 h1         1 P0B       0.040033
     21 H2           1.2060    -5.1560     3.8320 h1         1 P0B       0.040033
     22 H3           1.1300    -5.3150     5.6040 h1         1 P0B       0.040033
     23 H4          -1.1070     2.4290     6.1750 ha         1 P0B       0.129000
     24 H5           0.5490     1.3690     7.7150 ha         1 P0B       0.142000
     25 H6          -2.3810     1.0090     4.5710 ha         1 P0B       0.141000
     26 H7           3.5600    -0.4890     5.6620 ha         1 P0B       0.220000
     27 H9           2.6570    -3.3640     4.2120 h1         1 P0B       0.065200
     28 H10          2.4270    -2.8430     5.8780 h1         1 P0B       0.065200
     29 H11         -1.2100    -3.4570     5.9450 h1         1 P0B       0.056700
     30 H12          0.2130    -3.2770     6.9460 h1         1 P0B       0.056700
     31 H13          1.7590     2.0720     2.9200 hn         1 P0B       0.339500
     32 H8           0.5420    -1.7420     3.0330 hn         1 P0B       0.481000
     33 FAD          1.1120    -1.1700     7.8130 f          1 P0B      -0.178000
@<TRIPOS>BOND
     1     1    16 1   
     2     1    20 1   
     3     1    21 1   
     4     1    22 1   
     5     2     3 ar  
     6     2     4 ar  
     7     2    23 1   
     8     3     8 ar  
     9     3    24 1   
    10     4     9 ar  
    11     4    25 1   
    12     5    10 2   
    13     5    12 1   
    14     5    26 1   
    15     6    10 1   
    16     6    16 1   
    17     6    27 1   
    18     6    28 1   
    19     7    11 1   
    20     7    16 1   
    21     7    29 1   
    22     7    30 1   
    23     8    11 ar  
    24     8    33 1   
    25     9    11 ar  
    26     9    19 1   
    27    10    14 1   
    28    12    15 1   
    29    12    17 2   
    30    13    14 1   
    31    13    15 1   
    32    13    18 2   
    33    14    32 1   
    34    15    31 1   
@<TRIPOS>SUBSTRUCTURE
     1 P0B         1 TEMP              0 ****  ****    0 ROOT
