@<TRIPOS>MOLECULE
P0B
   33    34     1     0     0
SMALL
abcg2


@<TRIPOS>ATOM
      1 CAA          0.6970    -4.7250     4.6890 c3         1 P0B       0.157100
      2 CAF         -0.8140     1.3090     6.3270 ca         1 P0B      -0.066000
      3 CAG         -0.0160     0.6430     7.2410 ca         1 P0B      -0.146000
      4 CAH         -1.4620     0.6120     5.3170 ca         1 P0B      -0.122000
      5 CAI          2.6980    -0.2690     4.8420 cc         1 P0B      -0.398200
      6 CAJ          1.9400    -2.6700     4.9830 c3         1 P0B       0.188000
      7 CAK         -0.2550    -2.9560     5.9840 c3         1 P0B       0.220100
      8 CAN          0.1270    -0.7240     7.1120 ca         1 P0B       0.185000
      9 CAO         -1.2940    -0.7600     5.2340 ca         1 P0B       0.152000
     10 CAP          1.9470    -1.2910     4.3850 cd         1 P0B       0.113400
     11 CAQ         -0.4830    -1.4760     6.1160 ca         1 P0B      -0.134300
     12 CAR          2.6530     1.0060     4.1740 c          1 P0B       0.593200
     13 CAS          1.0230     0.0270     2.5930 c          1 P0B       0.616000
     14 NAL          1.1670    -1.1460     3.2800 ns         1 P0B      -0.503600
     15 NAM          1.7990     1.0480     3.0790 ns         1 P0B      -0.472500
     16 NAT          0.6350    -3.2890     4.8780 n3         1 P0B      -0.740600
     17 OAB          3.2800     2.0010     4.4980 o          1 P0B      -0.537000
     18 OAC          0.2830     0.1520     1.6390 o          1 P0B      -0.556000
     19 CL1         -2.1240    -1.6040     3.9690 cl         1 P0B      -0.184000
     20 H1          -0.3040    -5.1090     4.4910 h1         1 P0B       0.040033
     21 H2           1.3200    -4.9600     3.8260 h1         1 P0B       0.040033
     22 H3           1.0990    -5.2640     5.5580 h1         1 P0B       0.040033
     23 H4          -0.9380     2.3810     6.4010 ha         1 P0B       0.129000
     24 H5           0.4960     1.1710     8.0340 ha         1 P0B       0.142000
     25 H6          -2.0910     1.1300     4.6080 ha         1 P0B       0.141000
     26 H7           3.3160    -0.3810     5.7200 ha         1 P0B       0.220000
     27 H9           2.6540    -3.2640     4.4050 h1         1 P0B       0.065200
     28 H10          2.3350    -2.6260     6.0050 h1         1 P0B       0.065200
     29 H11         -1.2130    -3.4440     5.7940 h1         1 P0B       0.056700
     30 H12          0.1160    -3.3660     6.9310 h1         1 P0B       0.056700
     31 H13          1.7220     1.9310     2.5910 hn         1 P0B       0.339500
     32 H8           0.5510    -1.9180     3.0490 hn         1 P0B       0.481000
     33 FAD          0.9270    -1.3520     7.9870 f          1 P0B      -0.178000
@<TRIPOS>BOND
     1     1    16 1   
     2     1    20 1   
     3     1    21 1   
     4     1    22 1   
     5     2     3 ar  
     6     2     4 ar  
     7     2    23 1   
     8     3     8 ar  
     9     3    24 1   
    10     4     9 ar  
    11     4    25 1   
    12     5    10 2   
    13     5    12 1   
    14     5    26 1   
    15     6    10 1   
    16     6    16 1   
    17     6    27 1   
    18     6    28 1   
    19     7    11 1   
    20     7    16 1   
    21     7    29 1   
    22     7    30 1   
    23     8    11 ar  
    24     8    33 1   
    25     9    11 ar  
    26     9    19 1   
    27    10    14 1   
    28    12    15 1   
    29    12    17 2   
    30    13    14 1   
    31    13    15 1   
    32    13    18 2   
    33    14    32 1   
    34    15    31 1   
@<TRIPOS>SUBSTRUCTURE
     1 P0B         1 TEMP              0 ****  ****    0 ROOT
