@<TRIPOS>MOLECULE
P0C
   35    37     1     0     0
SMALL
No Charge or Current Charge


@<TRIPOS>ATOM
      1 C14         -2.5520     0.4590    -0.4850 cc         1 P0C      -0.243000
      2 C16         -4.7970     0.1090    -0.3240 cd         1 P0C      -0.096300
      3 C17         -6.2970     0.2050    -0.3840 c3         1 P0C      -0.038800
      4 O01          3.5220     2.2250    -0.6200 oh         1 P0C      -0.696000
      5 C02          3.3010     1.0820     0.2320 c5         1 P0C       0.098300
      6 C03          3.3790    -0.2880    -0.5450 c5         1 P0C       0.137300
      7 C04          3.8380    -1.4780     0.3490 c3         1 P0C       0.151600
      8 O05          4.1160    -2.6500    -0.4410 oh         1 P0C      -0.702000
      9 O06          2.0320    -0.5440    -1.0430 os         1 P0C      -0.417000
     10 C07          1.1720     0.5150    -0.5810 c5         1 P0C       0.329700
     11 C08          1.8280     1.0570     0.7280 c5         1 P0C       0.135300
     12 O09          1.4090     2.3770     1.1090 oh         1 P0C      -0.691000
     13 N10         -0.2200     0.0860    -0.2820 n          1 P0C      -0.294000
     14 C11         -0.4780    -1.1670     0.3730 c          1 P0C       0.710400
     15 N12         -1.8280    -1.5700     0.5640 nd         1 P0C      -0.438400
     16 C13         -2.7460    -0.7530     0.1310 cc         1 P0C       0.116000
     17 C15         -3.8280     1.0030    -0.7730 cc         1 P0C      -0.140000
     18 N18         -4.0910    -0.9780     0.2360 na         1 P0C      -0.179000
     19 C19         -1.2770     0.9130    -0.7070 cd         1 P0C       0.063600
     20 O20          0.4060    -1.8920     0.8040 o          1 P0C      -0.558000
     21 H1          -6.7220    -0.6250    -0.9590 hc         1 P0C       0.053033
     22 H2          -6.7340     0.1790     0.6210 hc         1 P0C       0.053033
     23 H3          -6.6140     1.1400    -0.8620 hc         1 P0C       0.053033
     24 H5           4.0020     1.1010     1.0790 h1         1 P0C       0.052700
     25 H6           4.0680    -0.2130    -1.3970 h1         1 P0C       0.075700
     26 H7           4.7440    -1.1760     0.8910 h1         1 P0C       0.031200
     27 H8           3.0640    -1.6900     1.0980 h1         1 P0C       0.031200
     28 H9           4.2880    -3.3890     0.1880 ho         1 P0C       0.508000
     29 H10          1.1250     1.3030    -1.3430 h2         1 P0C       0.073700
     30 H11          1.7000     0.3480     1.5580 h1         1 P0C       0.082700
     31 H12          2.0070     2.9690     0.5860 ho         1 P0C       0.515000
     32 H14         -4.0060     1.9580    -1.2610 ha         1 P0C       0.141000
     33 H15         -4.5100    -1.8000     0.6540 hn         1 P0C       0.363000
     34 H16         -1.0030     1.8510    -1.1820 h4         1 P0C       0.211000
     35 H4           4.4780     2.2340    -0.8690 ho         1 P0C       0.506000
@<TRIPOS>BOND
     1     1    16 1   
     2     1    17 1   
     3     1    19 2   
     4     2     3 1   
     5     2    17 2   
     6     2    18 1   
     7     3    21 1   
     8     3    22 1   
     9     3    23 1   
    10     4     5 1   
    11     4    35 1   
    12     5     6 1   
    13     5    11 1   
    14     5    24 1   
    15     6     7 1   
    16     6     9 1   
    17     6    25 1   
    18     7     8 1   
    19     7    26 1   
    20     7    27 1   
    21     8    28 1   
    22     9    10 1   
    23    10    11 1   
    24    10    13 1   
    25    10    29 1   
    26    11    12 1   
    27    11    30 1   
    28    12    31 1   
    29    13    14 1   
    30    13    19 1   
    31    14    15 1   
    32    14    20 2   
    33    15    16 2   
    34    16    18 1   
    35    17    32 1   
    36    18    33 1   
    37    19    34 1   
@<TRIPOS>SUBSTRUCTURE
     1 P0C         1 TEMP              0 ****  ****    0 ROOT
