@<TRIPOS>MOLECULE
P0C
   35    37     1     0     0
SMALL
abcg2


@<TRIPOS>ATOM
      1 C14         -2.5000     0.4910    -0.5780 cc         1 P0C      -0.243000
      2 C16         -4.6850     0.0330    -0.4120 cd         1 P0C      -0.096300
      3 C17         -6.1640    -0.0360    -0.4880 c3         1 P0C      -0.038800
      4 O01          3.6440     2.1470    -0.6510 oh         1 P0C      -0.696000
      5 C02          3.3860     1.0320     0.1620 c5         1 P0C       0.098300
      6 C03          3.2610    -0.2680    -0.6400 c5         1 P0C       0.137300
      7 C04          3.6420    -1.4890     0.1710 c3         1 P0C       0.151600
      8 O05          3.4570    -2.6350    -0.6240 oh         1 P0C      -0.702000
      9 O06          1.9010    -0.3300    -1.0790 os         1 P0C      -0.417000
     10 C07          1.1530     0.6760    -0.4700 c5         1 P0C       0.329700
     11 C08          1.9680     1.1720     0.7220 c5         1 P0C       0.135300
     12 O09          1.5580     2.4620     1.0550 oh         1 P0C      -0.691000
     13 N10         -0.2030     0.2180    -0.1800 n          1 P0C      -0.294000
     14 C11         -0.4270    -0.8770     0.6950 c          1 P0C       0.710400
     15 N12         -1.7010    -1.2780     0.9020 nd         1 P0C      -0.438400
     16 C13         -2.6570    -0.6240     0.2970 cc         1 P0C       0.116000
     17 C15         -3.8140     0.8830    -1.0100 cc         1 P0C      -0.140000
     18 N18         -3.9780    -0.8730     0.3760 na         1 P0C      -0.179000
     19 C19         -1.2170     0.8750    -0.7940 cd         1 P0C       0.063600
     20 O20          0.5260    -1.4190     1.2350 o          1 P0C      -0.558000
     21 H1          -6.4970    -1.0160    -0.8360 hc         1 P0C       0.053033
     22 H2          -6.6200     0.1360     0.4890 hc         1 P0C       0.053033
     23 H3          -6.5430     0.7160    -1.1760 hc         1 P0C       0.053033
     24 H5           4.1340     0.9370     0.9610 h1         1 P0C       0.052700
     25 H6           3.9010    -0.2310    -1.5300 h1         1 P0C       0.075700
     26 H7           4.6930    -1.3670     0.4670 h1         1 P0C       0.031200
     27 H8           3.0470    -1.5290     1.0880 h1         1 P0C       0.031200
     28 H9           3.5800    -3.4070    -0.0650 ho         1 P0C       0.508000
     29 H10          1.0180     1.5190    -1.1590 h2         1 P0C       0.073700
     30 H11          1.8670     0.4820     1.5640 h1         1 P0C       0.082700
     31 H12          1.9420     2.6960     1.9050 ho         1 P0C       0.515000
     32 H14         -4.0710     1.6920    -1.6740 ha         1 P0C       0.141000
     33 H15         -4.3920    -1.6170     0.9170 hn         1 P0C       0.363000
     34 H16         -0.9470     1.6930    -1.4480 h4         1 P0C       0.211000
     35 H4           4.5130     2.0350    -1.0500 ho         1 P0C       0.506000
@<TRIPOS>BOND
     1     1    16 1   
     2     1    17 1   
     3     1    19 2   
     4     2     3 1   
     5     2    17 2   
     6     2    18 1   
     7     3    21 1   
     8     3    22 1   
     9     3    23 1   
    10     4     5 1   
    11     4    35 1   
    12     5     6 1   
    13     5    11 1   
    14     5    24 1   
    15     6     7 1   
    16     6     9 1   
    17     6    25 1   
    18     7     8 1   
    19     7    26 1   
    20     7    27 1   
    21     8    28 1   
    22     9    10 1   
    23    10    11 1   
    24    10    13 1   
    25    10    29 1   
    26    11    12 1   
    27    11    30 1   
    28    12    31 1   
    29    13    14 1   
    30    13    19 1   
    31    14    15 1   
    32    14    20 2   
    33    15    16 2   
    34    16    18 1   
    35    17    32 1   
    36    18    33 1   
    37    19    34 1   
@<TRIPOS>SUBSTRUCTURE
     1 P0C         1 TEMP              0 ****  ****    0 ROOT
