@<TRIPOS>MOLECULE
P0E
  121   120     1     0     0
SMALL
No Charge or Current Charge


@<TRIPOS>ATOM
      1 O1          14.7510     3.7200   -10.7640 os         1 P0E      -0.427100
      2 C2          13.5050     3.8460   -11.4940 c3         1 P0E       0.169300
      3 C3          13.5870     2.9240   -12.7320 c3         1 P0E       0.161600
      4 C4          12.3100     3.4900   -10.5600 c3         1 P0E       0.205600
      5 O5          14.5320     3.4850   -13.6680 os         1 P0E      -0.453100
      6 O6          12.3670     2.0960   -10.2110 os         1 P0E      -0.596400
      7 O7          10.0280     2.1160    -9.1700 o          1 P0E      -0.808500
      8 P8          10.9940     1.2950    -9.9550 p5         1 P0E       1.391800
      9 O9          11.2380    -0.0350    -9.3250 o          1 P0E      -0.808500
     10 O10         10.5260     1.1420   -11.4900 os         1 P0E      -0.610400
     11 C11         15.0740     4.6680    -9.8290 c          1 P0E       0.604100
     12 O12         14.4130     5.6730    -9.6010 o          1 P0E      -0.511000
     13 C13         14.7890     2.7830   -14.8150 c          1 P0E       0.593100
     14 O14         14.2990     1.6960   -15.0850 o          1 P0E      -0.488000
     15 C15         16.3750     4.3200    -9.0990 c3         1 P0E      -0.132400
     16 C16         16.1250     3.4760    -7.8250 c3         1 P0E      -0.065400
     17 C17         15.3530     4.2220    -6.7120 c3         1 P0E      -0.075400
     18 C18         15.1680     3.3750    -5.4340 c3         1 P0E      -0.078400
     19 C19         14.4100     4.1270    -4.3170 c3         1 P0E      -0.073400
     20 C20         14.2250     3.2810    -3.0360 c3         1 P0E      -0.071400
     21 C21         13.5200     4.0330    -1.8850 c3         1 P0E      -0.038200
     22 C22         12.0920     4.4270    -2.2170 c2         1 P0E      -0.185200
     23 C23         10.9750     3.7470    -1.9010 c2         1 P0E      -0.250200
     24 C24         15.8280     3.4880   -15.6910 c3         1 P0E      -0.140400
     25 C25         17.2600     3.0030   -15.3650 c3         1 P0E      -0.068400
     26 C26         18.3420     3.6980   -16.2200 c3         1 P0E      -0.075400
     27 C27         19.7730     3.2160   -15.8940 c3         1 P0E      -0.075400
     28 C28         20.8550     3.9120   -16.7480 c3         1 P0E      -0.074400
     29 C29         22.2860     3.4310   -16.4200 c3         1 P0E      -0.073400
     30 C30         23.3690     4.1260   -17.2700 c3         1 P0E      -0.044200
     31 C31         24.7640     3.6340   -16.9300 c2         1 P0E      -0.212200
     32 C32         25.4660     2.6860   -17.5770 c2         1 P0E      -0.219200
     33 C33         25.0060     1.8670   -18.7690 c3         1 P0E      -0.042200
     34 C34         10.8940     2.4150    -1.1760 c3         1 P0E      -0.034200
     35 C35         25.5150     2.4480   -20.1040 c3         1 P0E      -0.073400
     36 C36         25.0590     1.6310   -21.3330 c3         1 P0E      -0.075400
     37 C37         25.5700     2.2120   -22.6690 c3         1 P0E      -0.074400
     38 C38         25.1150     1.3920   -23.8970 c3         1 P0E      -0.075400
     39 C39         25.6270     1.9700   -25.2340 c3         1 P0E      -0.075400
     40 C40         25.1700     1.1500   -26.4600 c3         1 P0E      -0.075400
     41 C41         25.6820     1.7240   -27.7960 c3         1 P0E      -0.088100
     42 C42         10.7040     2.5670     0.3490 c3         1 P0E      -0.067400
     43 C43          9.3730     3.2440     0.7520 c3         1 P0E      -0.076400
     44 C44          9.1880     3.3480     2.2820 c3         1 P0E      -0.075400
     45 C45          7.8600     4.0250     2.6850 c3         1 P0E      -0.076400
     46 C46          7.6740     4.1290     4.2110 c3         1 P0E      -0.087100
     47 C47         11.1620     0.1480   -12.3210 c3         1 P0E       0.182600
     48 C48         10.6450     0.3200   -13.7750 c3         1 P0E       0.152600
     49 O49         10.1410     1.6500   -13.9410 oh         1 P0E      -0.680000
     50 H2          13.3700     4.8760   -11.8510 h1         1 P0E       0.057700
     51 H31A        12.5930     2.8460   -13.1910 h1         1 P0E       0.079700
     52 H32A        13.8970     1.9200   -12.4130 h1         1 P0E       0.079700
     53 H41         11.3780     3.7230   -11.0920 h1         1 P0E       0.036700
     54 H42         12.3350     4.1120    -9.6560 h1         1 P0E       0.036700
     55 H151        16.9950     3.7040    -9.7620 hc         1 P0E       0.057200
     56 H152        16.9040     5.2410    -8.8270 hc         1 P0E       0.057200
     57 H161        15.5780     2.5640    -8.0990 hc         1 P0E       0.046700
     58 H162        17.0950     3.1520    -7.4260 hc         1 P0E       0.046700
     59 H171        14.3640     4.5170    -7.0860 hc         1 P0E       0.041700
     60 H172        15.8890     5.1450    -6.4590 hc         1 P0E       0.041700
     61 H181        16.1530     3.0700    -5.0580 hc         1 P0E       0.044200
     62 H182        14.6220     2.4570    -5.6850 hc         1 P0E       0.044200
     63 H191        13.4280     4.4330    -4.6980 hc         1 P0E       0.044700
     64 H192        14.9570     5.0450    -4.0660 hc         1 P0E       0.044700
     65 H201        15.2080     2.9470    -2.6840 hc         1 P0E       0.044200
     66 H202        13.6520     2.3760    -3.2770 hc         1 P0E       0.044200
     67 H211        13.5430     3.3960    -0.9920 hc         1 P0E       0.025200
     68 H212        14.1020     4.9260    -1.6260 hc         1 P0E       0.025200
     69 H22         12.0120     5.3790    -2.7500 ha         1 P0E       0.216000
     70 H23         10.0010     4.1480    -2.1920 ha         1 P0E       0.169000
     71 H241        15.7920     4.5650   -15.4900 hc         1 P0E       0.067200
     72 H242        15.6100     3.2830   -16.7450 hc         1 P0E       0.067200
     73 H251        17.3180     1.9180   -15.5220 hc         1 P0E       0.053200
     74 H252        17.4680     3.1830   -14.3020 hc         1 P0E       0.053200
     75 H261        18.2830     4.7830   -16.0630 hc         1 P0E       0.035700
     76 H262        18.1340     3.5170   -17.2820 hc         1 P0E       0.035700
     77 H271        19.9800     3.3970   -14.8320 hc         1 P0E       0.039700
     78 H272        19.8320     2.1320   -16.0520 hc         1 P0E       0.039700
     79 H281        20.6490     3.7290   -17.8100 hc         1 P0E       0.036200
     80 H282        20.7950     4.9970   -16.5920 hc         1 P0E       0.036200
     81 H291        22.4930     3.6120   -15.3570 hc         1 P0E       0.039700
     82 H292        22.3470     2.3470   -16.5780 hc         1 P0E       0.039700
     83 H301        23.3140     5.2100   -17.1130 hc         1 P0E       0.043700
     84 H302        23.1490     3.9640   -18.3320 hc         1 P0E       0.043700
     85 H31         25.2120     4.1430   -16.0740 ha         1 P0E       0.164000
     86 H32         26.4710     2.4330   -17.2330 ha         1 P0E       0.162000
     87 H331        23.9110     1.8070   -18.7990 hc         1 P0E       0.045700
     88 H332        25.3610     0.8340   -18.6640 hc         1 P0E       0.045700
     89 H341        11.8030     1.8280    -1.3540 hc         1 P0E       0.035700
     90 H342        10.0710     1.8160    -1.5860 hc         1 P0E       0.035700
     91 H351        25.1580     3.4810   -20.2040 hc         1 P0E       0.038200
     92 H352        26.6110     2.4880   -20.0830 hc         1 P0E       0.038200
     93 H361        25.4130     0.5980   -21.2300 hc         1 P0E       0.038200
     94 H362        23.9620     1.5930   -21.3530 hc         1 P0E       0.038200
     95 H371        26.6670     2.2500   -22.6490 hc         1 P0E       0.036200
     96 H372        25.2150     3.2450   -22.7730 hc         1 P0E       0.036200
     97 H381        25.4690     0.3590   -23.7910 hc         1 P0E       0.037200
     98 H382        24.0180     1.3540   -23.9170 hc         1 P0E       0.037200
     99 H391        25.2730     3.0030   -25.3400 hc         1 P0E       0.036200
    100 H392        26.7240     2.0070   -25.2140 hc         1 P0E       0.036200
    101 H401        24.0730     1.1130   -26.4850 hc         1 P0E       0.036700
    102 H402        25.5220     0.1160   -26.3590 hc         1 P0E       0.036700
    103 H411        26.7780     1.7400   -27.8160 hc         1 P0E       0.030367
    104 H412        25.3320     1.1100   -28.6340 hc         1 P0E       0.030367
    105 H413        25.3170     2.7470   -27.9440 hc         1 P0E       0.030367
    106 H421        11.5430     3.1420     0.7600 hc         1 P0E       0.027700
    107 H422        10.7490     1.5710     0.8080 hc         1 P0E       0.027700
    108 H431         8.5360     2.6770     0.3250 hc         1 P0E       0.043200
    109 H432         9.3320     4.2520     0.3200 hc         1 P0E       0.043200
    110 H441         9.2260     2.3410     2.7180 hc         1 P0E       0.030700
    111 H442        10.0260     3.9140     2.7080 hc         1 P0E       0.030700
    112 H451         7.0200     3.4600     2.2620 hc         1 P0E       0.038700
    113 H452         7.8190     5.0330     2.2520 hc         1 P0E       0.038700
    114 H461         6.7200     4.6150     4.4480 hc         1 P0E       0.026367
    115 H462         7.6750     3.1330     4.6710 hc         1 P0E       0.026367
    116 H463         8.4820     4.7200     4.6610 hc         1 P0E       0.026367
    117 H471        12.2530     0.2750   -12.3110 h1         1 P0E       0.029700
    118 H472        10.9350    -0.8680   -11.9720 h1         1 P0E       0.029700
    119 H481         9.8440    -0.4100   -13.9520 h1         1 P0E       0.029700
    120 H482        11.4560     0.1110   -14.4850 h1         1 P0E       0.029700
    121 H49          9.9930     1.9300   -13.0040 ho         1 P0E       0.453000
@<TRIPOS>BOND
     1     1     2 1   
     2     1    11 1   
     3     2     3 1   
     4     2     4 1   
     5     2    50 1   
     6     3     5 1   
     7     3    51 1   
     8     3    52 1   
     9     4     6 1   
    10     4    53 1   
    11     4    54 1   
    12     5    13 1   
    13     6     8 1   
    14     7     8 1   
    15     8     9 1   
    16     8    10 1   
    17    10    47 1   
    18    11    12 2   
    19    11    15 1   
    20    13    14 2   
    21    13    24 1   
    22    15    16 1   
    23    15    55 1   
    24    15    56 1   
    25    16    17 1   
    26    16    57 1   
    27    16    58 1   
    28    17    18 1   
    29    17    59 1   
    30    17    60 1   
    31    18    19 1   
    32    18    61 1   
    33    18    62 1   
    34    19    20 1   
    35    19    63 1   
    36    19    64 1   
    37    20    21 1   
    38    20    65 1   
    39    20    66 1   
    40    21    22 1   
    41    21    67 1   
    42    21    68 1   
    43    22    23 2   
    44    22    69 1   
    45    23    34 1   
    46    23    70 1   
    47    24    25 1   
    48    24    71 1   
    49    24    72 1   
    50    25    26 1   
    51    25    73 1   
    52    25    74 1   
    53    26    27 1   
    54    26    75 1   
    55    26    76 1   
    56    27    28 1   
    57    27    77 1   
    58    27    78 1   
    59    28    29 1   
    60    28    79 1   
    61    28    80 1   
    62    29    30 1   
    63    29    81 1   
    64    29    82 1   
    65    30    31 1   
    66    30    83 1   
    67    30    84 1   
    68    31    32 2   
    69    31    85 1   
    70    32    33 1   
    71    32    86 1   
    72    33    35 1   
    73    33    87 1   
    74    33    88 1   
    75    34    42 1   
    76    34    89 1   
    77    34    90 1   
    78    35    36 1   
    79    35    91 1   
    80    35    92 1   
    81    36    37 1   
    82    36    93 1   
    83    36    94 1   
    84    37    38 1   
    85    37    95 1   
    86    37    96 1   
    87    38    39 1   
    88    38    97 1   
    89    38    98 1   
    90    39    40 1   
    91    39    99 1   
    92    39   100 1   
    93    40    41 1   
    94    40   101 1   
    95    40   102 1   
    96    41   103 1   
    97    41   104 1   
    98    41   105 1   
    99    42    43 1   
   100    42   106 1   
   101    42   107 1   
   102    43    44 1   
   103    43   108 1   
   104    43   109 1   
   105    44    45 1   
   106    44   110 1   
   107    44   111 1   
   108    45    46 1   
   109    45   112 1   
   110    45   113 1   
   111    46   114 1   
   112    46   115 1   
   113    46   116 1   
   114    47    48 1   
   115    47   117 1   
   116    47   118 1   
   117    48    49 1   
   118    48   119 1   
   119    48   120 1   
   120    49   121 1   
@<TRIPOS>SUBSTRUCTURE
     1 P0E         1 TEMP              0 ****  ****    0 ROOT
