@<TRIPOS>MOLECULE
P0E
  121   120     1     0     0
SMALL
abcg2


@<TRIPOS>ATOM
      1 O1          15.8890     5.5600    -9.1790 os         1 P0E      -0.427100
      2 C2          14.8310     4.9250    -9.9020 c3         1 P0E       0.169300
      3 C3          15.3820     3.6020   -10.3850 c3         1 P0E       0.161600
      4 C4          13.6170     4.7290    -9.0130 c3         1 P0E       0.205600
      5 O5          16.4030     3.8910   -11.3400 os         1 P0E      -0.453100
      6 O6          13.9860     3.9520    -7.9000 os         1 P0E      -0.596400
      7 O7          11.7440     4.3290    -6.6990 o          1 P0E      -0.808500
      8 P8          12.8210     3.3150    -6.9260 p5         1 P0E       1.391800
      9 O9          13.5590     2.6090    -5.8400 o          1 P0E      -0.808500
     10 O10         12.1350     2.2120    -7.9420 os         1 P0E      -0.610400
     11 C11         15.8500     6.8710    -8.9620 c          1 P0E       0.604100
     12 O12         15.0520     7.6110    -9.4830 o          1 P0E      -0.511000
     13 C13         17.0430     2.8640   -11.8920 c          1 P0E       0.593100
     14 O14         16.7950     1.7150   -11.6260 o          1 P0E      -0.488000
     15 C15         16.9100     7.2880    -7.9780 c3         1 P0E      -0.132400
     16 C16         16.8290     6.4970    -6.6700 c3         1 P0E      -0.065400
     17 C17         15.4920     6.6400    -5.9520 c3         1 P0E      -0.075400
     18 C18         15.3530     5.6820    -4.7770 c3         1 P0E      -0.078400
     19 C19         14.0090     5.7910    -4.0690 c3         1 P0E      -0.073400
     20 C20         13.8960     4.8360    -2.8880 c3         1 P0E      -0.071400
     21 C21         12.5150     4.8340    -2.2200 c3         1 P0E      -0.038200
     22 C22         11.5070     4.0460    -3.0000 c2         1 P0E      -0.185200
     23 C23         10.7930     3.0050    -2.5710 c2         1 P0E      -0.250200
     24 C24         18.0880     3.3260   -12.8700 c3         1 P0E      -0.140400
     25 C25         18.8290     2.1910   -13.5550 c3         1 P0E      -0.068400
     26 C26         19.8700     2.7020   -14.5430 c3         1 P0E      -0.075400
     27 C27         20.6160     1.5750   -15.2440 c3         1 P0E      -0.075400
     28 C28         21.6590     2.0650   -16.2400 c3         1 P0E      -0.074400
     29 C29         22.3790     0.9250   -16.9470 c3         1 P0E      -0.073400
     30 C30         23.4320     1.4040   -17.9490 c3         1 P0E      -0.044200
     31 C31         24.1330     0.2550   -18.6040 c2         1 P0E      -0.212200
     32 C32         24.0960    -0.1000   -19.8870 c2         1 P0E      -0.219200
     33 C33         23.3950     0.5920   -21.0140 c3         1 P0E      -0.042200
     34 C34         10.8080     2.3800    -1.2100 c3         1 P0E      -0.034200
     35 C35         24.3230     0.8420   -22.2020 c3         1 P0E      -0.073400
     36 C36         23.6310     1.5560   -23.3560 c3         1 P0E      -0.075400
     37 C37         24.5350     1.7530   -24.5660 c3         1 P0E      -0.074400
     38 C38         23.8560     2.4990   -25.7080 c3         1 P0E      -0.075400
     39 C39         24.7520     2.6780   -26.9270 c3         1 P0E      -0.075400
     40 C40         24.0800     3.4380   -28.0640 c3         1 P0E      -0.075400
     41 C41         24.9840     3.6060   -29.2770 c3         1 P0E      -0.088100
     42 C42          9.4610     2.4310    -0.4820 c3         1 P0E      -0.067400
     43 C43          8.3450     1.6560    -1.1730 c3         1 P0E      -0.076400
     44 C44          7.0870     1.5420    -0.3210 c3         1 P0E      -0.075400
     45 C45          5.9690     0.7590    -0.9990 c3         1 P0E      -0.076400
     46 C46          4.7320     0.6180    -0.1230 c3         1 P0E      -0.087100
     47 C47         12.8860     1.0840    -8.3550 c3         1 P0E       0.182600
     48 C48         12.2740     0.5400    -9.6270 c3         1 P0E       0.152600
     49 O49         12.3160     1.4570   -10.6970 oh         1 P0E      -0.680000
     50 H2          14.5290     5.5320   -10.7610 h1         1 P0E       0.057700
     51 H31A        14.5790     3.0200   -10.8440 h1         1 P0E       0.079700
     52 H32A        15.7880     3.0200    -9.5560 h1         1 P0E       0.079700
     53 H41         12.8420     4.2450    -9.6200 h1         1 P0E       0.036700
     54 H42         13.2170     5.6990    -8.7060 h1         1 P0E       0.036700
     55 H151        17.8920     7.1380    -8.4370 hc         1 P0E       0.057200
     56 H152        16.7990     8.3570    -7.7930 hc         1 P0E       0.057200
     57 H161        17.0260     5.4420    -6.8690 hc         1 P0E       0.046700
     58 H162        17.6330     6.8400    -6.0140 hc         1 P0E       0.046700
     59 H171        14.6660     6.4460    -6.6440 hc         1 P0E       0.041700
     60 H172        15.3660     7.6740    -5.6140 hc         1 P0E       0.041700
     61 H181        16.1660     5.8520    -4.0620 hc         1 P0E       0.044200
     62 H182        15.4650     4.6580    -5.1450 hc         1 P0E       0.044200
     63 H191        13.2150     5.5850    -4.7920 hc         1 P0E       0.044700
     64 H192        13.8550     6.8180    -3.7200 hc         1 P0E       0.044700
     65 H201        14.6520     5.1010    -2.1420 hc         1 P0E       0.044200
     66 H202        14.1290     3.8230    -3.2270 hc         1 P0E       0.044200
     67 H211        12.6020     4.4490    -1.2030 hc         1 P0E       0.025200
     68 H212        12.1720     5.8710    -2.1190 hc         1 P0E       0.025200
     69 H22         11.3860     4.3360    -4.0400 ha         1 P0E       0.216000
     70 H23         10.1300     2.5330    -3.2920 ha         1 P0E       0.169000
     71 H241        18.7890     3.9770   -12.3380 hc         1 P0E       0.067200
     72 H242        17.6000     3.9690   -13.6110 hc         1 P0E       0.067200
     73 H251        18.1170     1.5480   -14.0810 hc         1 P0E       0.053200
     74 H252        19.3190     1.5620   -12.8070 hc         1 P0E       0.053200
     75 H261        20.5870     3.3450   -14.0200 hc         1 P0E       0.035700
     76 H262        19.3830     3.3370   -15.2910 hc         1 P0E       0.035700
     77 H271        21.1020     0.9410   -14.4950 hc         1 P0E       0.039700
     78 H272        19.8950     0.9330   -15.7620 hc         1 P0E       0.039700
     79 H281        21.1760     2.7080   -16.9840 hc         1 P0E       0.036200
     80 H282        22.3910     2.6950   -15.7230 hc         1 P0E       0.036200
     81 H291        22.8560     0.2780   -16.2030 hc         1 P0E       0.039700
     82 H292        21.6470     0.3010   -17.4690 hc         1 P0E       0.039700
     83 H301        24.1650     2.0220   -17.4180 hc         1 P0E       0.043700
     84 H302        22.9580     2.0540   -18.6880 hc         1 P0E       0.043700
     85 H31         24.7060    -0.3740   -17.9270 ha         1 P0E       0.164000
     86 H32         24.6440    -0.9950   -20.1730 ha         1 P0E       0.162000
     87 H331        22.9580     1.5390   -20.6860 hc         1 P0E       0.045700
     88 H332        22.5560    -0.0270   -21.3540 hc         1 P0E       0.045700
     89 H341        11.5670     2.8450    -0.5790 hc         1 P0E       0.035700
     90 H342        11.1000     1.3280    -1.3090 hc         1 P0E       0.035700
     91 H351        25.1850     1.4310   -21.8730 hc         1 P0E       0.038200
     92 H352        24.7250    -0.1150   -22.5530 hc         1 P0E       0.038200
     93 H361        22.7430     0.9890   -23.6550 hc         1 P0E       0.038200
     94 H362        23.2660     2.5300   -23.0110 hc         1 P0E       0.038200
     95 H371        24.8790     0.7770   -24.9240 hc         1 P0E       0.036200
     96 H372        25.4360     2.2990   -24.2640 hc         1 P0E       0.036200
     97 H381        22.9460     1.9630   -26.0010 hc         1 P0E       0.037200
     98 H382        23.5260     3.4820   -25.3520 hc         1 P0E       0.037200
     99 H391        25.6670     3.2040   -26.6320 hc         1 P0E       0.036200
    100 H392        25.0730     1.6950   -27.2890 hc         1 P0E       0.036200
    101 H401        23.7640     4.4220   -27.7020 hc         1 P0E       0.036700
    102 H402        23.1630     2.9160   -28.3550 hc         1 P0E       0.036700
    103 H411        25.2840     2.6380   -29.6820 hc         1 P0E       0.030367
    104 H412        24.4880     4.1590   -30.0760 hc         1 P0E       0.030367
    105 H413        25.8940     4.1490   -29.0150 hc         1 P0E       0.030367
    106 H421         9.1570     3.4740    -0.3470 hc         1 P0E       0.027700
    107 H422         9.6040     2.0230     0.5240 hc         1 P0E       0.027700
    108 H431         8.7050     0.6500    -1.4190 hc         1 P0E       0.043200
    109 H432         8.0910     2.1290    -2.1270 hc         1 P0E       0.043200
    110 H441         7.3380     1.0600     0.6310 hc         1 P0E       0.030700
    111 H442         6.7240     2.5440    -0.0650 hc         1 P0E       0.030700
    112 H451         6.3400    -0.2340    -1.2710 hc         1 P0E       0.038700
    113 H452         5.7030     1.2500    -1.9400 hc         1 P0E       0.038700
    114 H461         3.9480     0.0470    -0.6210 hc         1 P0E       0.026367
    115 H462         4.9700     0.1050     0.8110 hc         1 P0E       0.026367
    116 H463         4.3180     1.5940     0.1350 hc         1 P0E       0.026367
    117 H471        13.9340     1.3440    -8.5420 h1         1 P0E       0.029700
    118 H472        12.8760     0.3020    -7.5890 h1         1 P0E       0.029700
    119 H481        11.2480     0.2050    -9.4280 h1         1 P0E       0.029700
    120 H482        12.8420    -0.3410    -9.9330 h1         1 P0E       0.029700
    121 H49         11.7810     2.2170   -10.4500 ho         1 P0E       0.453000
@<TRIPOS>BOND
     1     1     2 1   
     2     1    11 1   
     3     2     3 1   
     4     2     4 1   
     5     2    50 1   
     6     3     5 1   
     7     3    51 1   
     8     3    52 1   
     9     4     6 1   
    10     4    53 1   
    11     4    54 1   
    12     5    13 1   
    13     6     8 1   
    14     7     8 1   
    15     8     9 1   
    16     8    10 1   
    17    10    47 1   
    18    11    12 2   
    19    11    15 1   
    20    13    14 2   
    21    13    24 1   
    22    15    16 1   
    23    15    55 1   
    24    15    56 1   
    25    16    17 1   
    26    16    57 1   
    27    16    58 1   
    28    17    18 1   
    29    17    59 1   
    30    17    60 1   
    31    18    19 1   
    32    18    61 1   
    33    18    62 1   
    34    19    20 1   
    35    19    63 1   
    36    19    64 1   
    37    20    21 1   
    38    20    65 1   
    39    20    66 1   
    40    21    22 1   
    41    21    67 1   
    42    21    68 1   
    43    22    23 2   
    44    22    69 1   
    45    23    34 1   
    46    23    70 1   
    47    24    25 1   
    48    24    71 1   
    49    24    72 1   
    50    25    26 1   
    51    25    73 1   
    52    25    74 1   
    53    26    27 1   
    54    26    75 1   
    55    26    76 1   
    56    27    28 1   
    57    27    77 1   
    58    27    78 1   
    59    28    29 1   
    60    28    79 1   
    61    28    80 1   
    62    29    30 1   
    63    29    81 1   
    64    29    82 1   
    65    30    31 1   
    66    30    83 1   
    67    30    84 1   
    68    31    32 2   
    69    31    85 1   
    70    32    33 1   
    71    32    86 1   
    72    33    35 1   
    73    33    87 1   
    74    33    88 1   
    75    34    42 1   
    76    34    89 1   
    77    34    90 1   
    78    35    36 1   
    79    35    91 1   
    80    35    92 1   
    81    36    37 1   
    82    36    93 1   
    83    36    94 1   
    84    37    38 1   
    85    37    95 1   
    86    37    96 1   
    87    38    39 1   
    88    38    97 1   
    89    38    98 1   
    90    39    40 1   
    91    39    99 1   
    92    39   100 1   
    93    40    41 1   
    94    40   101 1   
    95    40   102 1   
    96    41   103 1   
    97    41   104 1   
    98    41   105 1   
    99    42    43 1   
   100    42   106 1   
   101    42   107 1   
   102    43    44 1   
   103    43   108 1   
   104    43   109 1   
   105    44    45 1   
   106    44   110 1   
   107    44   111 1   
   108    45    46 1   
   109    45   112 1   
   110    45   113 1   
   111    46   114 1   
   112    46   115 1   
   113    46   116 1   
   114    47    48 1   
   115    47   117 1   
   116    47   118 1   
   117    48    49 1   
   118    48   119 1   
   119    48   120 1   
   120    49   121 1   
@<TRIPOS>SUBSTRUCTURE
     1 P0E         1 TEMP              0 ****  ****    0 ROOT
