@<TRIPOS>MOLECULE
P0F
   34    36     1     0     0
SMALL
No Charge or Current Charge


@<TRIPOS>ATOM
      1 Cl           2.9950    -2.4220     0.2260 cl         1 P0F      -0.188000
      2 CAR          3.9560    -0.9610    -0.0120 ca         1 P0F       0.150000
      3 CAH          5.3460    -1.0410     0.1830 ca         1 P0F      -0.121000
      4 CAE          6.1540     0.0940     0.0100 ca         1 P0F      -0.063000
      5 CAG          5.5660     1.3140    -0.3600 ca         1 P0F      -0.153000
      6 CAQ          4.1780     1.3960    -0.5560 ca         1 P0F       0.206000
      7 F            3.6410     2.5860    -0.9100 f          1 P0F      -0.167000
      8 CAV          3.3550     0.2630    -0.3840 ca         1 P0F      -0.143300
      9 CAK          1.8520     0.3670    -0.6050 c3         1 P0F       0.258100
     10 NAN          1.1680     0.5810     0.6720 nu         1 P0F      -0.893100
     11 CAU         -0.1590     0.4830     0.9060 cc         1 P0F       0.625400
     12 NAM         -1.0880     0.3140    -0.0510 na         1 P0F      -0.529000
     13 NAO         -0.7140     0.5470     2.0920 nd         1 P0F      -0.414000
     14 NAL         -2.0720     0.4090     1.9030 nd         1 P0F      -0.331000
     15 CAT         -2.2890     0.2680     0.6010 cc         1 P0F       0.430000
     16 CAS         -3.5960     0.0930    -0.0510 ca         1 P0F      -0.080500
     17 CAJ         -4.7820     0.0620     0.7180 ca         1 P0F      -0.108000
     18 CAP         -6.0330    -0.1060     0.1040 ca         1 P0F       0.141100
     19 OAA         -7.1630    -0.1330     0.8650 oh         1 P0F      -0.527100
     20 CAF         -6.1210    -0.2450    -1.2890 ca         1 P0F      -0.199000
     21 CAD         -4.9540    -0.2160    -2.0680 ca         1 P0F      -0.069000
     22 CAI         -3.7010    -0.0490    -1.4550 ca         1 P0F      -0.148000
     23 H1           5.7970    -1.9880     0.4710 ha         1 P0F       0.139000
     24 H2           7.2300     0.0280     0.1620 ha         1 P0F       0.127000
     25 H3           6.1830     2.1980    -0.4960 ha         1 P0F       0.141000
     26 H4           1.6280     1.1960    -1.2910 h1         1 P0F       0.053200
     27 H5           1.4820    -0.5490    -1.0880 h1         1 P0F       0.053200
     28 H6           1.7280     0.6440     1.5190 hn         1 P0F       0.499000
     29 H7          -0.9260     0.2420    -1.0390 hn         1 P0F       0.360000
     30 H8          -4.7390     0.1670     1.8000 ha         1 P0F       0.156000
     31 H9          -7.9340    -0.2560     0.2700 ho         1 P0F       0.465000
     32 H10         -7.0870    -0.3750    -1.7720 ha         1 P0F       0.115000
     33 H11         -5.0190    -0.3240    -3.1490 ha         1 P0F       0.114000
     34 H12         -2.8120    -0.0300    -2.0810 ha         1 P0F       0.104000
@<TRIPOS>BOND
     1     1     2 1   
     2     2     3 ar  
     3     2     8 ar  
     4     3     4 ar  
     5     3    23 1   
     6     4     5 ar  
     7     4    24 1   
     8     5     6 ar  
     9     5    25 1   
    10     6     7 1   
    11     6     8 ar  
    12     8     9 1   
    13     9    10 1   
    14     9    26 1   
    15     9    27 1   
    16    10    11 1   
    17    10    28 1   
    18    11    12 1   
    19    11    13 2   
    20    12    15 1   
    21    12    29 1   
    22    13    14 1   
    23    14    15 2   
    24    15    16 1   
    25    16    17 ar  
    26    16    22 ar  
    27    17    18 ar  
    28    17    30 1   
    29    18    19 1   
    30    18    20 ar  
    31    19    31 1   
    32    20    21 ar  
    33    20    32 1   
    34    21    22 ar  
    35    21    33 1   
    36    22    34 1   
@<TRIPOS>SUBSTRUCTURE
     1 P0F         1 TEMP              0 ****  ****    0 ROOT
