@<TRIPOS>MOLECULE
P0F
   34    36     1     0     0
SMALL
bcc


@<TRIPOS>ATOM
      1 CL           3.6080    -2.4330     0.8000 cl         1 P0F      -0.096400
      2 CAR          4.1920    -0.9180     0.1950 ca         1 P0F       0.058400
      3 CAH          5.5560    -0.6740     0.2480 ca         1 P0F      -0.139000
      4 CAE          6.0400     0.5420    -0.2070 ca         1 P0F      -0.081000
      5 CAG          5.1760     1.5050    -0.7050 ca         1 P0F      -0.171000
      6 CAQ          3.8260     1.2190    -0.7380 ca         1 P0F       0.170900
      7 F            2.9890     2.1520    -1.2100 f          1 P0F      -0.131900
      8 CAV          3.2860     0.0120    -0.3130 ca         1 P0F      -0.143300
      9 CAK          1.8060    -0.2340    -0.3660 c3         1 P0F       0.258100
     10 NAN          1.1930     0.2000     0.8790 nu         1 P0F      -0.837900
     11 CAU         -0.1560     0.1290     1.0350 cc         1 P0F       0.625400
     12 NAM         -1.0490     0.1470     0.0190 na         1 P0F      -0.478700
     13 NAO         -0.7890     0.0880     2.1820 nd         1 P0F      -0.414000
     14 NAL         -2.1190     0.0910     1.9080 nd         1 P0F      -0.331000
     15 CAT         -2.2780     0.1240     0.6190 cc         1 P0F       0.430000
     16 CAS         -3.5520     0.1350    -0.0910 ca         1 P0F      -0.080500
     17 CAJ         -4.7320     0.0920     0.6480 ca         1 P0F      -0.126000
     18 CAP         -5.9630     0.1010     0.0040 ca         1 P0F       0.141100
     19 OAA         -7.0680     0.0560     0.7720 oh         1 P0F      -0.488100
     20 CAF         -6.0200     0.1540    -1.3890 ca         1 P0F      -0.217000
     21 CAD         -4.8420     0.1970    -2.1170 ca         1 P0F      -0.087000
     22 CAI         -3.6080     0.1880    -1.4840 ca         1 P0F      -0.166000
     23 H1           6.2290    -1.4210     0.6420 ha         1 P0F       0.157000
     24 H2           7.1020     0.7420    -0.1710 ha         1 P0F       0.145000
     25 H3           5.5390     2.4600    -1.0580 ha         1 P0F       0.159000
     26 H4           1.3810     0.3350    -1.1920 h1         1 P0F       0.053200
     27 H5           1.6110    -1.2890    -0.5800 h1         1 P0F       0.053200
     28 H6           1.6910    -0.0650     1.7160 hn         1 P0F       0.443800
     29 H7          -0.8520     0.1840    -0.9680 hn         1 P0F       0.309700
     30 H8          -4.6940     0.0520     1.7290 ha         1 P0F       0.174000
     31 H9          -7.8600     0.0660     0.2230 ho         1 P0F       0.426000
     32 H10         -6.9750     0.1620    -1.9010 ha         1 P0F       0.133000
     33 H11         -4.8880     0.2370    -3.1970 ha         1 P0F       0.132000
     34 H12         -2.7120     0.2230    -2.0870 ha         1 P0F       0.122000
@<TRIPOS>BOND
     1     1     2 1   
     2     2     3 ar  
     3     2     8 ar  
     4     3     4 ar  
     5     3    23 1   
     6     4     5 ar  
     7     4    24 1   
     8     5     6 ar  
     9     5    25 1   
    10     6     7 1   
    11     6     8 ar  
    12     8     9 1   
    13     9    10 1   
    14     9    26 1   
    15     9    27 1   
    16    10    11 1   
    17    10    28 1   
    18    11    12 1   
    19    11    13 2   
    20    12    15 1   
    21    12    29 1   
    22    13    14 1   
    23    14    15 2   
    24    15    16 1   
    25    16    17 ar  
    26    16    22 ar  
    27    17    18 ar  
    28    17    30 1   
    29    18    19 1   
    30    18    20 ar  
    31    19    31 1   
    32    20    21 ar  
    33    20    32 1   
    34    21    22 ar  
    35    21    33 1   
    36    22    34 1   
@<TRIPOS>SUBSTRUCTURE
     1 P0F         1 TEMP              0 ****  ****    0 ROOT
