@<TRIPOS>MOLECULE
P0G
   53    55     1     0     0
SMALL
abcg2


@<TRIPOS>ATOM
      1 CAA         -5.0900     2.4140    -0.5550 c3         1 P0G      -0.048800
      2 CAB         -2.2620     1.1700     0.8200 c3         1 P0G      -0.102100
      3 CAC         -2.3800    -1.3100     1.0600 c3         1 P0G      -0.102100
      4 OAD          5.9370     3.0440    -0.7220 o          1 P0G      -0.535000
      5 OAE          6.1680    -1.2090     1.5420 oh         1 P0G      -0.539100
      6 OAF          0.6090    -2.3050    -1.2800 oh         1 P0G      -0.668000
      7 CAG         -7.4370    -0.1470     0.9380 ca         1 P0G      -0.106000
      8 CAH         -6.7450    -1.3370     0.7620 ca         1 P0G      -0.113000
      9 CAI         -6.8710     1.0380     0.4970 ca         1 P0G      -0.114000
     10 CAJ         -5.4960    -1.3120     0.1640 ca         1 P0G      -0.107000
     11 CAK          4.0420    -2.2550     1.0690 ca         1 P0G      -0.202000
     12 CAL          2.8260    -2.1970     0.4030 ca         1 P0G      -0.042000
     13 CAM          3.7000     2.1930    -0.8810 c6         1 P0G       0.070600
     14 CAN          0.1700    -0.1970    -0.2380 c3         1 P0G       0.122800
     15 CAO         -3.5350    -0.2010    -0.8950 c3         1 P0G      -0.031100
     16 NAP         -1.1550    -0.3420    -0.8160 n7         1 P0G      -0.904400
     17 NAQ          5.5590     0.9020    -0.0910 ns         1 P0G      -0.130000
     18 OAR          3.1700     0.9640    -1.3410 os         1 P0G      -0.331100
     19 CAS          5.1810     2.1030    -0.5750 c          1 P0G       0.540000
     20 CAT         -5.6110     1.0780    -0.1040 ca         1 P0G      -0.068300
     21 CAU          4.9650    -1.2270     0.9360 ca         1 P0G       0.129100
     22 CAV         -4.8980    -0.1220    -0.2600 ca         1 P0G      -0.072300
     23 CAW          2.4900    -1.1190    -0.4080 ca         1 P0G      -0.108300
     24 CAX          4.6530    -0.1420     0.1180 ca         1 P0G      -0.120000
     25 CAY          3.4280    -0.0990    -0.5370 ca         1 P0G       0.114100
     26 CAZ          1.1490    -1.0230    -1.0870 c3         1 P0G       0.230600
     27 CBA         -2.3190    -0.1570     0.0620 c3         1 P0G       0.206200
     28 HAA         -4.5270     2.9120     0.2360 hc         1 P0G       0.041367
     29 HAAA        -4.4290     2.3450    -1.4170 hc         1 P0G       0.041367
     30 HAAB        -5.9140     3.0750    -0.8250 hc         1 P0G       0.041367
     31 HAB         -2.1780     2.0130     0.1310 hc         1 P0G       0.040867
     32 HABA        -3.1520     1.3190     1.4320 hc         1 P0G       0.040867
     33 HABB        -1.4000     1.1980     1.4890 hc         1 P0G       0.040867
     34 HAC         -3.2650    -1.2290     1.6900 hc         1 P0G       0.040867
     35 HACA        -2.4110    -2.2740     0.5480 hc         1 P0G       0.040867
     36 HACB        -1.5160    -1.3090     1.7250 hc         1 P0G       0.040867
     37 HOAE         6.2920    -2.0090     2.0660 ho         1 P0G       0.474000
     38 HOAF        -0.3500    -2.1400    -1.3120 ho         1 P0G       0.475000
     39 HAG         -8.4170    -0.1420     1.3990 ha         1 P0G       0.113000
     40 HAH         -7.1760    -2.2780     1.0770 ha         1 P0G       0.114000
     41 HAI         -7.4230     1.9640     0.6120 ha         1 P0G       0.109000
     42 HAJ         -4.9670    -2.2450     0.0090 ha         1 P0G       0.111000
     43 HAK          4.2750    -3.1070     1.6970 ha         1 P0G       0.120000
     44 HAL          2.1210    -3.0060     0.5300 ha         1 P0G       0.138000
     45 HAM          3.5370     2.9280    -1.6660 h1         1 P0G       0.081700
     46 HAMA         3.1750     2.5310     0.0220 h1         1 P0G       0.081700
     47 HAN          0.5170     0.8400    -0.1690 h1         1 P0G       0.045200
     48 HANA         0.1710    -0.6010     0.7760 h1         1 P0G       0.045200
     49 HAO         -3.4670    -1.1360    -1.4590 hc         1 P0G       0.051700
     50 HAOA        -3.4120     0.6020    -1.6280 hc         1 P0G       0.051700
     51 HNAP        -1.2340     0.2890    -1.6070 hn         1 P0G       0.417000
     52 HNAQ         6.5260     0.7770     0.1760 hn         1 P0G       0.179000
     53 HAZ          1.2690    -0.5160    -2.0560 h1         1 P0G       0.052700
@<TRIPOS>BOND
     1     1    20 1   
     2     1    28 1   
     3     1    29 1   
     4     1    30 1   
     5     2    27 1   
     6     2    31 1   
     7     2    32 1   
     8     2    33 1   
     9     3    27 1   
    10     3    34 1   
    11     3    35 1   
    12     3    36 1   
    13     4    19 2   
    14     5    21 1   
    15     5    37 1   
    16     6    26 1   
    17     6    38 1   
    18     7     8 ar  
    19     7     9 ar  
    20     7    39 1   
    21     8    10 ar  
    22     8    40 1   
    23     9    20 ar  
    24     9    41 1   
    25    10    22 ar  
    26    10    42 1   
    27    11    12 ar  
    28    11    21 ar  
    29    11    43 1   
    30    12    23 ar  
    31    12    44 1   
    32    13    18 1   
    33    13    19 1   
    34    13    45 1   
    35    13    46 1   
    36    14    16 1   
    37    14    26 1   
    38    14    47 1   
    39    14    48 1   
    40    15    22 1   
    41    15    27 1   
    42    15    49 1   
    43    15    50 1   
    44    16    27 1   
    45    16    51 1   
    46    17    19 1   
    47    17    24 1   
    48    17    52 1   
    49    18    25 1   
    50    20    22 ar  
    51    21    24 ar  
    52    23    25 ar  
    53    23    26 1   
    54    24    25 ar  
    55    26    53 1   
@<TRIPOS>SUBSTRUCTURE
     1 P0G         1 TEMP              0 ****  ****    0 ROOT
