@<TRIPOS>MOLECULE
P0G
   53    55     1     0     0
SMALL
No Charge or Current Charge


@<TRIPOS>ATOM
      1 CAA         -5.4060     2.1790    -0.9710 c3         1 P0G      -0.048800
      2 CAB         -2.4070     1.2190     0.7720 c3         1 P0G      -0.102100
      3 CAC         -2.3760    -1.2920     1.1830 c3         1 P0G      -0.102100
      4 OAD          6.6780     2.6480    -0.9340 o          1 P0G      -0.535000
      5 OAE          6.1800    -1.6400     1.5380 oh         1 P0G      -0.539100
      6 OAF          0.6740    -1.7680    -1.7320 oh         1 P0G      -0.668000
      7 CAG         -7.5910    -0.2240     1.0510 ca         1 P0G      -0.106000
      8 CAH         -6.8160    -1.3910     1.0770 ca         1 P0G      -0.113000
      9 CAI         -7.1110     0.9180     0.3940 ca         1 P0G      -0.114000
     10 CAJ         -5.5560    -1.4070     0.4590 ca         1 P0G      -0.107000
     11 CAK          3.9630    -2.3260     0.9450 ca         1 P0G      -0.202000
     12 CAL          2.7490    -2.0740     0.2790 ca         1 P0G      -0.042000
     13 CAM          4.2500     2.4150    -0.7170 c6         1 P0G       0.070600
     14 CAN          0.1380    -0.0430    -0.1980 c3         1 P0G       0.122800
     15 CAO         -3.6550    -0.3480    -0.8410 c3         1 P0G      -0.031100
     16 NAP         -1.2240    -0.3140    -0.7710 n7         1 P0G      -0.904400
     17 NAQ          5.8460     0.7890     0.1170 ns         1 P0G      -0.130000
     18 OAR          3.4260     1.2860    -1.1240 os         1 P0G      -0.331100
     19 CAS          5.7210     2.0030    -0.5170 c          1 P0G       0.540000
     20 CAT         -5.8470     0.9160    -0.2320 ca         1 P0G      -0.068300
     21 CAU          4.9980    -1.3810     0.9080 ca         1 P0G       0.129100
     22 CAV         -5.0430    -0.2570    -0.1790 ca         1 P0G      -0.072300
     23 CAW          2.5560    -0.8710    -0.4360 ca         1 P0G      -0.108300
     24 CAX          4.8120    -0.1720     0.2180 ca         1 P0G      -0.120000
     25 CAY          3.5910     0.0880    -0.4460 ca         1 P0G       0.114100
     26 CAZ          1.2320    -0.5910    -1.1520 c3         1 P0G       0.230600
     27 CBA         -2.4180    -0.1790     0.1040 c3         1 P0G       0.206200
     28 HAA         -4.5000     2.6090    -0.5340 hc         1 P0G       0.041367
     29 HAAA        -5.2120     1.9720    -2.0300 hc         1 P0G       0.041367
     30 HAAB        -6.1770     2.9580    -0.9360 hc         1 P0G       0.041367
     31 HAB         -2.3070     2.0130     0.0230 hc         1 P0G       0.040867
     32 HABA        -3.3330     1.3890     1.3340 hc         1 P0G       0.040867
     33 HABB        -1.5770     1.3170     1.4820 hc         1 P0G       0.040867
     34 HAC         -3.2450    -1.2250     1.8470 hc         1 P0G       0.040867
     35 HACA        -2.3700    -2.2870     0.7210 hc         1 P0G       0.040867
     36 HACB        -1.4910    -1.2090     1.8230 hc         1 P0G       0.040867
     37 HOAE         6.1200    -2.5240     1.9600 ho         1 P0G       0.474000
     38 HOAF        -0.2860    -1.6120    -1.5180 ho         1 P0G       0.475000
     39 HAG         -8.5690    -0.2090     1.5280 ha         1 P0G       0.113000
     40 HAH         -7.1920    -2.2840     1.5720 ha         1 P0G       0.114000
     41 HAI         -7.7320     1.8100     0.3670 ha         1 P0G       0.109000
     42 HAJ         -4.9740    -2.3250     0.4780 ha         1 P0G       0.111000
     43 HAK          4.0900    -3.2630     1.4830 ha         1 P0G       0.120000
     44 HAL          1.9570    -2.8190     0.3180 ha         1 P0G       0.138000
     45 HAM          4.2000     3.2090    -1.4730 h1         1 P0G       0.081700
     46 HAMA         3.8850     2.8010     0.2440 h1         1 P0G       0.081700
     47 HAN          0.3030     1.0320    -0.0380 h1         1 P0G       0.045200
     48 HANA         0.2650    -0.5410     0.7710 h1         1 P0G       0.045200
     49 HAO         -3.5730    -1.3240    -1.3360 hc         1 P0G       0.051700
     50 HAOA        -3.5730     0.3770    -1.6580 hc         1 P0G       0.051700
     51 HNAP        -1.3580     0.3290    -1.5640 hn         1 P0G       0.417000
     52 HNAQ         6.7820     0.4770     0.3450 hn         1 P0G       0.179000
     53 HAZ          1.3900     0.1520    -1.9450 h1         1 P0G       0.052700
@<TRIPOS>BOND
     1     1    20 1   
     2     1    28 1   
     3     1    29 1   
     4     1    30 1   
     5     2    27 1   
     6     2    31 1   
     7     2    32 1   
     8     2    33 1   
     9     3    27 1   
    10     3    34 1   
    11     3    35 1   
    12     3    36 1   
    13     4    19 2   
    14     5    21 1   
    15     5    37 1   
    16     6    26 1   
    17     6    38 1   
    18     7     8 ar  
    19     7     9 ar  
    20     7    39 1   
    21     8    10 ar  
    22     8    40 1   
    23     9    20 ar  
    24     9    41 1   
    25    10    22 ar  
    26    10    42 1   
    27    11    12 ar  
    28    11    21 ar  
    29    11    43 1   
    30    12    23 ar  
    31    12    44 1   
    32    13    18 1   
    33    13    19 1   
    34    13    45 1   
    35    13    46 1   
    36    14    16 1   
    37    14    26 1   
    38    14    47 1   
    39    14    48 1   
    40    15    22 1   
    41    15    27 1   
    42    15    49 1   
    43    15    50 1   
    44    16    27 1   
    45    16    51 1   
    46    17    19 1   
    47    17    24 1   
    48    17    52 1   
    49    18    25 1   
    50    20    22 ar  
    51    21    24 ar  
    52    23    25 ar  
    53    23    26 1   
    54    24    25 ar  
    55    26    53 1   
@<TRIPOS>SUBSTRUCTURE
     1 P0G         1 TEMP              0 ****  ****    0 ROOT
