@<TRIPOS>MOLECULE
P0H
   39    40     1     0     0
SMALL
No Charge or Current Charge


@<TRIPOS>ATOM
      1 C1          43.6080    37.7940    85.1550 c          1 P0H       0.639100
      2 O1          44.1230    36.7880    84.6930 o          1 P0H      -0.540000
      3 O2          44.1780    38.6610    86.0370 os         1 P0H      -0.458100
      4 C2          45.4730    38.3340    86.5770 c3         1 P0H       0.229900
      5 C3          45.3300    37.2060    87.5960 ca         1 P0H      -0.114300
      6 C4          45.9390    35.9550    87.3710 ca         1 P0H      -0.083500
      7 C5          45.8070    34.9210    88.3140 ca         1 P0H      -0.120000
      8 C6          45.0660    35.1310    89.4890 ca         1 P0H      -0.109000
      9 C7          44.4560    36.3760    89.7200 ca         1 P0H      -0.120000
     10 C8          44.5880    37.4100    88.7770 ca         1 P0H      -0.083500
     11 N1          42.3710    38.2620    84.8140 ns         1 P0H      -0.463900
     12 CA1         41.4560    37.6030    83.8600 c3         1 P0H       0.016000
     13 C9          40.1300    38.3890    83.6800 c          1 P0H       0.595100
     14 O3          39.9080    39.4270    84.2990 o          1 P0H      -0.616100
     15 N           39.1790    37.8750    82.7750 n          1 P0H      -0.367800
     16 CA          37.8650    38.5350    82.5190 c5         1 P0H      -0.038300
     17 C           36.7960    38.3830    83.6580 c          1 P0H       0.719000
     18 O           36.8770    37.4590    84.4590 o          1 P0H      -0.725000
     19 CB          37.3890    37.7990    81.2300 c5         1 P0H      -0.071400
     20 CG          37.9680    36.3750    81.4250 c5         1 P0H      -0.088400
     21 CD          39.3980    36.6700    81.9470 c5         1 P0H       0.111000
     22 OXT         35.9330    39.2440    83.7640 o          1 P0H      -0.725000
     23 H2          46.1750    38.0520    85.7800 h1         1 P0H       0.063700
     24 H2A         45.8960    39.2100    87.0860 h1         1 P0H       0.063700
     25 H4          46.5130    35.7810    86.4620 ha         1 P0H       0.118500
     26 H5          46.2780    33.9580    88.1340 ha         1 P0H       0.106500
     27 H6          44.9630    34.3310    90.2190 ha         1 P0H       0.104000
     28 H7          43.8820    36.5390    90.6290 ha         1 P0H       0.106500
     29 H8          44.1120    38.3710    88.9620 ha         1 P0H       0.118500
     30 HN1         42.0760    39.1210    85.2630 hn         1 P0H       0.324500
     31 HA1         41.9460    37.5190    82.8820 h1         1 P0H       0.067200
     32 HA1A        41.2150    36.5960    84.2230 h1         1 P0H       0.067200
     33 HA          37.9910    39.6090    82.3290 h1         1 P0H       0.068700
     34 HB          36.3000    37.8040    81.1110 hc         1 P0H       0.038700
     35 HBA         37.8140    38.2690    80.3360 hc         1 P0H       0.038700
     36 HG          37.3880    35.8080    82.1630 hc         1 P0H       0.042700
     37 HGA         37.9750    35.7890    80.4980 hc         1 P0H       0.042700
     38 HD          40.0890    36.8930    81.1230 h1         1 P0H       0.021200
     39 HDA         39.7980    35.8270    82.5250 h1         1 P0H       0.021200
@<TRIPOS>BOND
     1     1     2 2   
     2     1     3 1   
     3     1    11 1   
     4     3     4 1   
     5     4     5 1   
     6     4    23 1   
     7     4    24 1   
     8     5     6 ar  
     9     5    10 ar  
    10     6     7 ar  
    11     6    25 1   
    12     7     8 ar  
    13     7    26 1   
    14     8     9 ar  
    15     8    27 1   
    16     9    10 ar  
    17     9    28 1   
    18    10    29 1   
    19    11    12 1   
    20    11    30 1   
    21    12    13 1   
    22    12    31 1   
    23    12    32 1   
    24    13    14 2   
    25    13    15 1   
    26    15    16 1   
    27    15    21 1   
    28    16    17 1   
    29    16    19 1   
    30    16    33 1   
    31    17    18 1   
    32    17    22 1   
    33    19    20 1   
    34    19    34 1   
    35    19    35 1   
    36    20    21 1   
    37    20    36 1   
    38    20    37 1   
    39    21    38 1   
    40    21    39 1   
@<TRIPOS>SUBSTRUCTURE
     1 P0H         1 TEMP              0 ****  ****    0 ROOT
