@<TRIPOS>MOLECULE
P0H
   39    40     1     0     0
SMALL
bcc


@<TRIPOS>ATOM
      1 C1          42.5130    37.8700    85.9190 c          1 P0H       0.755100
      2 O1          43.1110    37.3520    85.0010 o          1 P0H      -0.589000
      3 O2          43.0900    38.6220    86.8670 os         1 P0H      -0.434900
      4 C2          44.5160    38.6600    86.8840 c3         1 P0H       0.206700
      5 C3          45.1050    37.3830    87.4150 ca         1 P0H      -0.114300
      6 C4          46.0890    36.7050    86.7050 ca         1 P0H      -0.101500
      7 C5          46.6520    35.5400    87.2120 ca         1 P0H      -0.138000
      8 C6          46.2240    35.0350    88.4310 ca         1 P0H      -0.127000
      9 C7          45.2360    35.7040    89.1440 ca         1 P0H      -0.138000
     10 C8          44.6830    36.8720    88.6410 ca         1 P0H      -0.101500
     11 N1          41.1900    37.7470    86.1450 ns         1 P0H      -0.530900
     12 CA1         40.3290    37.1950    85.1430 c3         1 P0H       0.016000
     13 C9          40.0660    38.1660    83.9930 c          1 P0H       0.662100
     14 O3          40.4730    39.3190    84.0380 o          1 P0H      -0.616100
     15 N           39.3750    37.6690    82.9630 n          1 P0H      -0.434800
     16 CA          38.8830    38.5250    81.8960 c5         1 P0H      -0.038300
     17 C           37.6810    39.4010    82.3380 c          1 P0H       0.929600
     18 O           37.1660    39.1630    83.4450 o          1 P0H      -0.830300
     19 CB          38.4610    37.5040    80.8370 c5         1 P0H      -0.071400
     20 CG          37.9030    36.3590    81.6760 c5         1 P0H      -0.088400
     21 CD          38.8360    36.3150    82.8850 c5         1 P0H       0.111000
     22 OXT         37.3290    40.2560    81.5020 o          1 P0H      -0.830300
     23 H2          44.9160    38.8890    85.8950 h1         1 P0H       0.063700
     24 H2A         44.7560    39.4940    87.5430 h1         1 P0H       0.063700
     25 H4          46.4160    37.0900    85.7460 ha         1 P0H       0.136500
     26 H5          47.4180    35.0230    86.6480 ha         1 P0H       0.124500
     27 H6          46.6570    34.1250    88.8250 ha         1 P0H       0.122000
     28 H7          44.8980    35.3150    90.0970 ha         1 P0H       0.124500
     29 H8          43.9200    37.3890    89.2110 ha         1 P0H       0.136500
     30 HN1         40.7730    38.3250    86.8570 hn         1 P0H       0.324500
     31 HA1         40.7420    36.2560    84.7710 h1         1 P0H       0.067200
     32 HA1A        39.3780    36.9420    85.6170 h1         1 P0H       0.067200
     33 HA          39.6820    39.1700    81.5260 h1         1 P0H       0.068700
     34 HB          37.7440    37.9150    80.1290 hc         1 P0H       0.038700
     35 HBA         39.3330    37.1680    80.2700 hc         1 P0H       0.038700
     36 HG          36.8840    36.5840    81.9930 hc         1 P0H       0.042700
     37 HGA         37.8820    35.4070    81.1470 hc         1 P0H       0.042700
     38 HD          39.6390    35.5890    82.7340 h1         1 P0H       0.021200
     39 HDA         38.3020    36.0320    83.7950 h1         1 P0H       0.021200
@<TRIPOS>BOND
     1     1     2 2   
     2     1     3 1   
     3     1    11 1   
     4     3     4 1   
     5     4     5 1   
     6     4    23 1   
     7     4    24 1   
     8     5     6 ar  
     9     5    10 ar  
    10     6     7 ar  
    11     6    25 1   
    12     7     8 ar  
    13     7    26 1   
    14     8     9 ar  
    15     8    27 1   
    16     9    10 ar  
    17     9    28 1   
    18    10    29 1   
    19    11    12 1   
    20    11    30 1   
    21    12    13 1   
    22    12    31 1   
    23    12    32 1   
    24    13    14 2   
    25    13    15 1   
    26    15    16 1   
    27    15    21 1   
    28    16    17 1   
    29    16    19 1   
    30    16    33 1   
    31    17    18 1   
    32    17    22 1   
    33    19    20 1   
    34    19    34 1   
    35    19    35 1   
    36    20    21 1   
    37    20    36 1   
    38    20    37 1   
    39    21    38 1   
    40    21    39 1   
@<TRIPOS>SUBSTRUCTURE
     1 P0H         1 TEMP              0 ****  ****    0 ROOT
