@<TRIPOS>MOLECULE
P0I
   65    68     1     0     0
SMALL
No Charge or Current Charge


@<TRIPOS>ATOM
      1 C10        -12.7190    14.9470   100.6010 ca         1 P0I      -0.146000
      2 C13        -12.7220    12.3390   101.6450 ca         1 P0I      -0.084000
      3 C17        -12.8140    13.1430    94.0670 c6         1 P0I       0.078000
      4 C20         -9.1660    16.3420    90.0290 ca         1 P0I       0.143100
      5 C22         -7.4090    17.5110    88.7530 c3         1 P0I       0.164600
      6 C24         -5.1830    18.4660    87.7080 c6         1 P0I      -0.058700
      7 C26         -4.6740    18.8840    85.2200 c6         1 P0I      -0.072900
      8 C28         -5.1600    20.8880    86.7450 c6         1 P0I      -0.072900
      9 C04        -12.9070    15.5370    93.6010 c6         1 P0I       0.078000
     10 C05        -12.5970    15.8810    95.0790 c6         1 P0I       0.086500
     11 C07        -12.7970    15.0640    97.4480 c          1 P0I       0.668100
     12 C09        -12.7350    13.8450    99.7170 ca         1 P0I      -0.009000
     13 C11        -12.7060    14.7430   101.9920 ca         1 P0I      -0.084000
     14 C12        -12.7090    13.4400   102.5150 ca         1 P0I      -0.137000
     15 C14        -12.7350    12.5430   100.2550 ca         1 P0I      -0.146000
     16 C16        -12.4790    13.3840    95.5580 c6         1 P0I       0.086500
     17 C18        -10.8190    15.1310    91.3790 ca         1 P0I      -0.104600
     18 C19         -9.4780    15.4320    91.0520 ca         1 P0I      -0.110000
     19 C23         -5.8640    17.5360    88.7620 c3         1 P0I      -0.077400
     20 C25         -5.5530    18.1070    86.2440 c6         1 P0I      -0.072900
     21 C27         -4.1540    20.2460    85.7620 c6         1 P0I      -0.074400
     22 C29         -5.4220    19.9850    87.9860 c6         1 P0I      -0.072900
     23 C30        -10.2070    16.9560    89.3010 ca         1 P0I      -0.184000
     24 C31        -11.5440    16.6460    89.5960 ca         1 P0I      -0.076000
     25 C32        -11.8500    15.7360    90.6210 ca         1 P0I      -0.127000
     26 N03        -12.3240    14.2350    93.1980 n          1 P0I      -0.409800
     27 N06        -12.7780    14.7660    96.0640 n          1 P0I      -0.440800
     28 N08        -12.7460    13.9660    98.3000 ns         1 P0I      -0.165000
     29 O01        -10.3550    13.1820    92.6720 o          1 P0I      -0.596100
     30 O15        -12.8590    16.2230    97.8380 o          1 P0I      -0.626100
     31 H101       -12.7120    15.9680   100.2340 ha         1 P0I       0.123500
     32 H131       -12.7230    11.3280   102.0480 ha         1 P0I       0.113000
     33 H171       -13.9050    13.0740    93.9570 h1         1 P0I       0.069700
     34 H172       -12.4030    12.1750    93.7460 h1         1 P0I       0.069700
     35 H221        -7.8030    18.5160    88.9500 h1         1 P0I       0.037200
     36 H222        -7.7680    17.1790    87.7700 h1         1 P0I       0.037200
     37 H241        -4.1060    18.2760    87.8250 hc         1 P0I       0.051700
     38 H262        -5.2550    19.0470    84.3020 hc         1 P0I       0.038950
     39 H261        -3.8130    18.2670    84.9270 hc         1 P0I       0.038950
     40 H281        -4.7990    21.8730    87.0690 hc         1 P0I       0.038950
     41 H282        -6.1080    21.0680    86.2180 hc         1 P0I       0.038950
     42 H042       -12.5350    16.3590    92.9760 h1         1 P0I       0.069700
     43 H041       -13.9970    15.4930    93.4640 h1         1 P0I       0.069700
     44 H052       -11.5530    16.2170    95.1410 h1         1 P0I       0.062450
     45 H051       -13.2240    16.7360    95.3700 h1         1 P0I       0.062450
     46 H111       -12.6930    15.5980   102.6660 ha         1 P0I       0.113000
     47 H121       -12.6990    13.2850   103.5920 ha         1 P0I       0.115000
     48 H141       -12.7450    11.6800    99.5920 ha         1 P0I       0.123500
     49 H162       -13.0340    12.6380    96.1440 h1         1 P0I       0.062450
     50 H161       -11.4080    13.1880    95.7090 h1         1 P0I       0.062450
     51 H191        -8.6670    14.9640    91.6040 ha         1 P0I       0.137000
     52 H231        -5.5090    16.5090    88.6120 hc         1 P0I       0.056700
     53 H232        -5.5300    17.8260    89.7660 hc         1 P0I       0.056700
     54 H252        -6.6110    18.3480    86.0640 hc         1 P0I       0.038450
     55 H251        -5.4500    17.0270    86.0720 hc         1 P0I       0.038450
     56 H272        -3.1930    20.0990    86.2740 hc         1 P0I       0.039700
     57 H271        -3.9530    20.9280    84.9240 hc         1 P0I       0.039700
     58 H291        -4.7680    20.3000    88.8110 hc         1 P0I       0.038450
     59 H292        -6.4470    20.1660    88.3320 hc         1 P0I       0.038450
     60 H301        -9.9990    17.6630    88.5020 ha         1 P0I       0.120000
     61 H311       -12.3470    17.1070    89.0240 ha         1 P0I       0.116000
     62 H321       -12.8920    15.4890    90.8120 ha         1 P0I       0.122000
     63 H081       -12.7080    13.0780    97.8200 hn         1 P0I       0.147000
     64 C02        -11.1130    14.1250    92.4750 c          1 P0I       0.614700
     65 O21         -7.8330    16.5960    89.7770 os         1 P0I      -0.357100
@<TRIPOS>BOND
     1     1    12 ar  
     2     1    13 ar  
     3     1    31 1   
     4     2    14 ar  
     5     2    15 ar  
     6     2    32 1   
     7     3    16 1   
     8     3    26 1   
     9     3    33 1   
    10     3    34 1   
    11     4    18 ar  
    12     4    23 ar  
    13     4    65 1   
    14     5    19 1   
    15     5    35 1   
    16     5    36 1   
    17     5    65 1   
    18     6    19 1   
    19     6    20 1   
    20     6    22 1   
    21     6    37 1   
    22     7    20 1   
    23     7    21 1   
    24     7    38 1   
    25     7    39 1   
    26     8    21 1   
    27     8    22 1   
    28     8    40 1   
    29     8    41 1   
    30     9    10 1   
    31     9    26 1   
    32     9    42 1   
    33     9    43 1   
    34    10    27 1   
    35    10    44 1   
    36    10    45 1   
    37    11    27 1   
    38    11    28 1   
    39    11    30 2   
    40    12    15 ar  
    41    12    28 1   
    42    13    14 ar  
    43    13    46 1   
    44    14    47 1   
    45    15    48 1   
    46    16    27 1   
    47    16    49 1   
    48    16    50 1   
    49    17    18 ar  
    50    17    25 ar  
    51    17    64 1   
    52    18    51 1   
    53    19    52 1   
    54    19    53 1   
    55    20    54 1   
    56    20    55 1   
    57    21    56 1   
    58    21    57 1   
    59    22    58 1   
    60    22    59 1   
    61    23    24 ar  
    62    23    60 1   
    63    24    25 ar  
    64    24    61 1   
    65    25    62 1   
    66    26    64 1   
    67    28    63 1   
    68    29    64 2   
@<TRIPOS>SUBSTRUCTURE
     1 P0I         1 TEMP              0 ****  ****    0 ROOT
