@<TRIPOS>MOLECULE
P0I
   65    68     1     0     0
SMALL
abcg2


@<TRIPOS>ATOM
      1 C10        -13.6240    14.9650    99.9140 ca         1 P0I      -0.146000
      2 C13        -12.7750    13.0240   101.7220 ca         1 P0I      -0.084000
      3 C17        -12.4010    13.1740    94.2150 c6         1 P0I       0.078000
      4 C20         -9.3620    16.1700    89.9030 ca         1 P0I       0.143100
      5 C22         -7.5990    17.2910    88.7150 c3         1 P0I       0.164600
      6 C24         -5.4360    18.2650    87.7390 c6         1 P0I      -0.058700
      7 C26         -5.1340    19.2030    85.4100 c6         1 P0I      -0.072900
      8 C28         -5.3080    20.8010    87.3630 c6         1 P0I      -0.072900
      9 C04        -12.0600    15.5560    93.8210 c6         1 P0I       0.078000
     10 C05        -11.2410    15.6400    95.1050 c6         1 P0I       0.086500
     11 C07        -12.0410    14.9640    97.3100 c          1 P0I       0.668100
     12 C09        -12.6940    14.0030    99.5100 ca         1 P0I      -0.009000
     13 C11        -14.1100    14.9520   101.2170 ca         1 P0I      -0.084000
     14 C12        -13.6920    13.9880   102.1290 ca         1 P0I      -0.137000
     15 C14        -12.2770    13.0320   100.4260 ca         1 P0I      -0.146000
     16 C16        -11.5860    13.2560    95.5060 c6         1 P0I       0.086500
     17 C18        -11.0520    14.9840    91.1550 ca         1 P0I      -0.104600
     18 C19         -9.7200    15.1800    90.8220 ca         1 P0I      -0.110000
     19 C23         -6.0890    17.1940    88.6230 c3         1 P0I      -0.077400
     20 C25         -6.0220    18.3410    86.3260 c6         1 P0I      -0.072900
     21 C27         -4.4540    20.3580    86.1750 c6         1 P0I      -0.074400
     22 C29         -5.4510    19.6650    88.3940 c6         1 P0I      -0.072900
     23 C30        -10.3540    16.9490    89.3030 ca         1 P0I      -0.184000
     24 C31        -11.6880    16.7320    89.6360 ca         1 P0I      -0.076000
     25 C32        -12.0480    15.7640    90.5620 ca         1 P0I      -0.127000
     26 N03        -11.9850    14.2050    93.2720 n          1 P0I      -0.409800
     27 N06        -11.6440    14.6080    96.0510 n          1 P0I      -0.440800
     28 N08        -12.1920    13.9210    98.2020 ns         1 P0I      -0.165000
     29 O01        -11.1910    12.7000    91.7660 o          1 P0I      -0.596100
     30 O15        -12.2400    16.1380    97.6290 o          1 P0I      -0.626100
     31 H101       -13.9610    15.7140    99.2150 ha         1 P0I       0.123500
     32 H131       -12.4390    12.2630   102.4150 ha         1 P0I       0.113000
     33 H171       -13.4590    13.3230    94.4470 h1         1 P0I       0.069700
     34 H172       -12.2700    12.2010    93.7510 h1         1 P0I       0.069700
     35 H221        -7.9210    18.2770    89.0590 h1         1 P0I       0.037200
     36 H222        -8.0680    17.0950    87.7480 h1         1 P0I       0.037200
     37 H241        -4.3890    17.9650    87.6310 hc         1 P0I       0.051700
     38 H262        -5.7420    19.6070    84.5960 hc         1 P0I       0.038950
     39 H261        -4.3680    18.5760    84.9450 hc         1 P0I       0.038950
     40 H281        -4.8790    21.6860    87.8400 hc         1 P0I       0.038950
     41 H282        -6.2960    21.0950    86.9970 hc         1 P0I       0.038950
     42 H042       -11.6810    16.2730    93.1000 h1         1 P0I       0.069700
     43 H041       -13.1070    15.7940    94.0310 h1         1 P0I       0.069700
     44 H052       -10.1810    15.5040    94.8610 h1         1 P0I       0.062450
     45 H051       -11.3740    16.6110    95.5700 h1         1 P0I       0.062450
     46 H111       -14.8300    15.7040   101.5160 ha         1 P0I       0.113000
     47 H121       -14.0780    13.9860   103.1410 ha         1 P0I       0.115000
     48 H141       -11.5600    12.2820   100.1140 ha         1 P0I       0.123500
     49 H162       -11.9960    12.5340    96.2050 h1         1 P0I       0.062450
     50 H161       -10.5440    12.9870    95.3020 h1         1 P0I       0.062450
     51 H191        -8.9430    14.5750    91.2720 ha         1 P0I       0.137000
     52 H231        -5.8320    16.2030    88.2380 hc         1 P0I       0.056700
     53 H232        -5.6750    17.2620    89.6340 hc         1 P0I       0.056700
     54 H252        -7.0270    18.7700    86.3750 hc         1 P0I       0.038450
     55 H251        -6.1340    17.3380    85.9050 hc         1 P0I       0.038450
     56 H272        -3.4760    20.0340    86.5460 hc         1 P0I       0.039700
     57 H271        -4.2670    21.1960    85.5000 hc         1 P0I       0.039700
     58 H291        -4.6360    19.7170    89.1210 hc         1 P0I       0.038450
     59 H292        -6.3770    19.8080    88.9570 hc         1 P0I       0.038450
     60 H301       -10.1010    17.7150    88.5850 ha         1 P0I       0.120000
     61 H311       -12.4540    17.3350    89.1650 ha         1 P0I       0.116000
     62 H321       -13.0870    15.6100    90.8240 ha         1 P0I       0.122000
     63 H081       -11.7080    13.0630    97.9960 hn         1 P0I       0.147000
     64 C02        -11.4080    13.8700    92.0960 c          1 P0I       0.614700
     65 O21         -8.0330    16.2990    89.6590 os         1 P0I      -0.357100
@<TRIPOS>BOND
     1     1    12 ar  
     2     1    13 ar  
     3     1    31 1   
     4     2    14 ar  
     5     2    15 ar  
     6     2    32 1   
     7     3    16 1   
     8     3    26 1   
     9     3    33 1   
    10     3    34 1   
    11     4    18 ar  
    12     4    23 ar  
    13     4    65 1   
    14     5    19 1   
    15     5    35 1   
    16     5    36 1   
    17     5    65 1   
    18     6    19 1   
    19     6    20 1   
    20     6    22 1   
    21     6    37 1   
    22     7    20 1   
    23     7    21 1   
    24     7    38 1   
    25     7    39 1   
    26     8    21 1   
    27     8    22 1   
    28     8    40 1   
    29     8    41 1   
    30     9    10 1   
    31     9    26 1   
    32     9    42 1   
    33     9    43 1   
    34    10    27 1   
    35    10    44 1   
    36    10    45 1   
    37    11    27 1   
    38    11    28 1   
    39    11    30 2   
    40    12    15 ar  
    41    12    28 1   
    42    13    14 ar  
    43    13    46 1   
    44    14    47 1   
    45    15    48 1   
    46    16    27 1   
    47    16    49 1   
    48    16    50 1   
    49    17    18 ar  
    50    17    25 ar  
    51    17    64 1   
    52    18    51 1   
    53    19    52 1   
    54    19    53 1   
    55    20    54 1   
    56    20    55 1   
    57    21    56 1   
    58    21    57 1   
    59    22    58 1   
    60    22    59 1   
    61    23    24 ar  
    62    23    60 1   
    63    24    25 ar  
    64    24    61 1   
    65    25    62 1   
    66    26    64 1   
    67    28    63 1   
    68    29    64 2   
@<TRIPOS>SUBSTRUCTURE
     1 P0I         1 TEMP              0 ****  ****    0 ROOT
