@<TRIPOS>MOLECULE
P0J
   20    20     1     0     0
SMALL
bcc


@<TRIPOS>ATOM
      1 O            1.5950    -0.0400     0.6180 os         1 P0J      -0.710050
      2 O01          0.0160     1.4480    -0.6440 os         1 P0J      -0.710050
      3 O02         -1.6950    -1.5380    -1.2650 oh         1 P0J      -0.771650
      4 O03         -1.7390     2.5680     0.9570 o          1 P0J      -0.773050
      5 O04         -2.4780    -2.2880     1.1330 o          1 P0J      -0.773050
      6 O1           1.2790    -1.1730    -1.5440 oh         1 P0J      -0.771650
      7 O2          -0.0320    -1.9390     0.5140 os         1 P0J      -0.710050
      8 O3           2.4400    -2.4640     0.4420 o          1 P0J      -0.773050
      9 O3A         -2.2880     1.3870    -1.3270 oh         1 P0J      -0.771650
     10 O4          -1.5500     0.0530     0.7350 os         1 P0J      -0.710050
     11 O5           1.5460     2.4320     1.2270 o          1 P0J      -0.773050
     12 O6           2.4440     1.5740    -1.0920 oh         1 P0J      -0.771650
     13 P01         -1.5620    -1.5050     0.3040 p5         1 P0J       1.754500
     14 P02          1.4470     1.4850     0.1180 p5         1 P0J       1.754500
     15 P1           1.4310    -1.5100    -0.0140 p5         1 P0J       1.754500
     16 P2          -1.4610     1.4920     0.0060 p5         1 P0J       1.754500
     17 H1          -2.5970    -1.6150    -1.6090 ho         1 P0J       0.500500
     18 H2           1.3840    -1.9150    -2.1590 ho         1 P0J       0.500500
     19 H3          -3.1990     1.7110    -1.2660 ho         1 P0J       0.500500
     20 H4           2.9300     2.4100    -1.1550 ho         1 P0J       0.500500
@<TRIPOS>BOND
     1     1    14 1   
     2     1    15 1   
     3     2    14 1   
     4     2    16 1   
     5     3    13 1   
     6     3    17 1   
     7     4    16 2   
     8     5    13 2   
     9     6    15 1   
    10     6    18 1   
    11     7    13 1   
    12     7    15 1   
    13     8    15 2   
    14     9    16 1   
    15     9    19 1   
    16    10    13 1   
    17    10    16 1   
    18    11    14 2   
    19    12    14 1   
    20    12    20 1   
@<TRIPOS>SUBSTRUCTURE
     1 P0J         1 TEMP              0 ****  ****    0 ROOT
