@<TRIPOS>MOLECULE
P0J
   20    20     1     0     0
SMALL
No Charge or Current Charge


@<TRIPOS>ATOM
      1 O            1.3410    -0.0820     0.7920 os         1 P0J      -0.710050
      2 O01         -0.0310     1.3310    -0.6890 os         1 P0J      -0.710050
      3 O02         -1.2180    -1.1720    -1.5220 oh         1 P0J      -0.780650
      4 O03         -1.5830     2.4370     1.1030 o          1 P0J      -0.543750
      5 O04         -2.5130    -2.3710     0.3530 o          1 P0J      -0.543750
      6 O1           1.3980    -0.9910    -1.5350 oh         1 P0J      -0.780650
      7 O2           0.0560    -2.1350     0.2270 os         1 P0J      -0.710050
      8 O3           2.6310    -2.2520     0.3260 o          1 P0J      -0.543750
      9 O3A         -2.4090     1.1140    -0.9180 oh         1 P0J      -0.780650
     10 O4          -1.2670    -0.1430     0.8080 os         1 P0J      -0.710050
     11 O5           1.2940     2.4810     1.2480 o          1 P0J      -0.543750
     12 O6           2.3520     1.4600    -0.8440 oh         1 P0J      -0.780650
     13 P01         -1.3660    -1.4960     0.0170 p5         1 P0J       1.525200
     14 P02          1.2180     1.3870     0.2510 p5         1 P0J       1.525200
     15 P1           1.4460    -1.4280    -0.0120 p5         1 P0J       1.525200
     16 P2          -1.3150     1.2970     0.2030 p5         1 P0J       1.525200
     17 H1          -1.9820    -0.5520    -1.5790 ho         1 P0J       0.509500
     18 H2           0.4540    -1.2100    -1.7240 ho         1 P0J       0.509500
     19 H3          -2.5030     2.0720    -1.0850 ho         1 P0J       0.509500
     20 H4           1.9060     0.8260    -1.4420 ho         1 P0J       0.509500
@<TRIPOS>BOND
     1     1    14 1   
     2     1    15 1   
     3     2    14 1   
     4     2    16 1   
     5     3    13 1   
     6     3    17 1   
     7     4    16 2   
     8     5    13 2   
     9     6    15 1   
    10     6    18 1   
    11     7    13 1   
    12     7    15 1   
    13     8    15 2   
    14     9    16 1   
    15     9    19 1   
    16    10    13 1   
    17    10    16 1   
    18    11    14 2   
    19    12    14 1   
    20    12    20 1   
@<TRIPOS>SUBSTRUCTURE
     1 P0J         1 TEMP              0 ****  ****    0 ROOT
