@<TRIPOS>MOLECULE
P0K
   30    31     1     0     0
SMALL
No Charge or Current Charge


@<TRIPOS>ATOM
      1 C10         22.2730   -27.1930    24.8760 c2         1 P0K       0.503300
      2 C01         23.0410   -30.4640    26.7980 c3         1 P0K       0.152100
      3 C03         24.0200   -28.2610    27.2960 c3         1 P0K       0.140500
      4 C04         23.7430   -26.7980    27.5540 cc         1 P0K       0.117300
      5 C05         22.6370   -26.1680    28.0560 cd         1 P0K      -0.139000
      6 C06         22.9290   -24.7900    28.0940 cd         1 P0K      -0.176000
      7 C07         24.2030   -24.6340    27.6220 cc         1 P0K       0.106900
      8 C09         22.7210   -28.6310    25.1730 c3         1 P0K       0.120500
      9 C11         23.2110   -26.3460    24.0670 c6         1 P0K      -0.282700
     10 C12         22.8880   -24.9070    24.3410 c          1 P0K       0.584000
     11 C14         20.5860   -25.5390    24.8310 c          1 P0K       0.703400
     12 N02         22.9180   -29.0000    26.6160 n3         1 P0K      -0.689600
     13 N13         21.5680   -24.6590    24.4920 ns         1 P0K      -0.497500
     14 N15         21.0540   -26.8180    25.1410 ne         1 P0K      -0.593100
     15 O08         24.7200   -25.8650    27.2810 os         1 P0K      -0.265000
     16 O16         19.4220   -25.1950    24.9010 o          1 P0K      -0.477000
     17 O17         23.7340   -24.0450    24.4920 o          1 P0K      -0.518000
     18 H1          23.0880   -30.7220    27.8650 h1         1 P0K       0.037033
     19 H2          22.1750   -30.9840    26.3670 h1         1 P0K       0.037033
     20 H3          23.9480   -30.8460    26.3120 h1         1 P0K       0.037033
     21 H4          24.2190   -28.7160    28.2760 h1         1 P0K       0.051700
     22 H5          24.9490   -28.3500    26.7160 h1         1 P0K       0.051700
     23 H6          21.7140   -26.6500    28.3600 ha         1 P0K       0.149000
     24 H7          22.2730   -23.9960    28.4360 ha         1 P0K       0.146000
     25 H8          24.8260   -23.7610    27.4780 h4         1 P0K       0.052100
     26 H9          21.9590   -29.2920    24.7380 h1         1 P0K       0.052200
     27 H10         23.6460   -28.8350    24.6160 h1         1 P0K       0.052200
     28 H11         22.9750   -26.5480    23.0160 hc         1 P0K       0.104700
     29 H12         24.2710   -26.5470    24.2620 hc         1 P0K       0.104700
     30 H14         21.2930   -23.6890    24.4840 hn         1 P0K       0.337500
@<TRIPOS>BOND
     1     1     8 1   
     2     1     9 1   
     3     1    14 2   
     4     2    12 1   
     5     2    18 1   
     6     2    19 1   
     7     2    20 1   
     8     3     4 1   
     9     3    12 1   
    10     3    21 1   
    11     3    22 1   
    12     4     5 2   
    13     4    15 1   
    14     5     6 1   
    15     5    23 1   
    16     6     7 2   
    17     6    24 1   
    18     7    15 1   
    19     7    25 1   
    20     8    12 1   
    21     8    26 1   
    22     8    27 1   
    23     9    10 1   
    24     9    28 1   
    25     9    29 1   
    26    10    13 1   
    27    10    17 2   
    28    11    13 1   
    29    11    14 1   
    30    11    16 2   
    31    13    30 1   
@<TRIPOS>SUBSTRUCTURE
     1 P0K         1 TEMP              0 ****  ****    0 ROOT
