@<TRIPOS>MOLECULE
P0K
   30    31     1     0     0
SMALL
bcc


@<TRIPOS>ATOM
      1 C10         22.5650   -27.0600    24.9580 c2         1 P0K       0.503300
      2 C01         22.9160   -30.4120    26.5160 c3         1 P0K       0.152100
      3 C03         23.6760   -28.4270    27.5980 c3         1 P0K       0.140500
      4 C04         23.5240   -26.9640    27.7990 cc         1 P0K       0.227000
      5 C05         22.7150   -26.2270    28.5960 cd         1 P0K      -0.222300
      6 C06         22.9390   -24.8600    28.2500 cd         1 P0K      -0.259300
      7 C07         23.8750   -24.8710    27.2730 cc         1 P0K       0.216600
      8 C09         23.1690   -28.4080    25.2360 c3         1 P0K       0.120500
      9 C11         23.2710   -26.2480    23.9250 c6         1 P0K      -0.282700
     10 C12         22.6960   -24.8850    23.6920 c          1 P0K       0.726500
     11 C14         20.9280   -25.4710    25.2900 c          1 P0K       0.845900
     12 N02         22.8420   -28.9630    26.5260 n3         1 P0K      -0.689600
     13 N13         21.5700   -24.6110    24.4140 ns         1 P0K      -0.631500
     14 N15         21.4930   -26.7120    25.5500 ne         1 P0K      -0.593100
     15 O08         24.2450   -26.1400    27.0000 os         1 P0K      -0.353800
     16 O16         19.8950   -25.1350    25.8170 o          1 P0K      -0.552500
     17 O17         23.1800   -24.0810    22.9290 o          1 P0K      -0.593500
     18 H1          22.6140   -30.8000    27.4890 h1         1 P0K       0.037033
     19 H2          22.2300   -30.8140    25.7690 h1         1 P0K       0.037033
     20 H3          23.9210   -30.8010    26.2990 h1         1 P0K       0.037033
     21 H4          23.3790   -28.9200    28.5250 h1         1 P0K       0.051700
     22 H5          24.7400   -28.6710    27.4380 h1         1 P0K       0.051700
     23 H6          22.0240   -26.6130    29.3280 ha         1 P0K       0.167000
     24 H7          22.4670   -23.9890    28.6750 ha         1 P0K       0.164000
     25 H8          24.3710   -24.0900    26.7200 h4         1 P0K       0.052100
     26 H9          22.7690   -29.0630    24.4530 h1         1 P0K       0.052200
     27 H10         24.2540   -28.3650    25.0460 h1         1 P0K       0.052200
     28 H11         23.2650   -26.7990    22.9770 hc         1 P0K       0.104700
     29 H12         24.3270   -26.1470    24.1860 hc         1 P0K       0.104700
     30 H14         21.1440   -23.7020    24.2810 hn         1 P0K       0.337500
@<TRIPOS>BOND
     1     1     8 1   
     2     1     9 1   
     3     1    14 2   
     4     2    12 1   
     5     2    18 1   
     6     2    19 1   
     7     2    20 1   
     8     3     4 1   
     9     3    12 1   
    10     3    21 1   
    11     3    22 1   
    12     4     5 2   
    13     4    15 1   
    14     5     6 1   
    15     5    23 1   
    16     6     7 2   
    17     6    24 1   
    18     7    15 1   
    19     7    25 1   
    20     8    12 1   
    21     8    26 1   
    22     8    27 1   
    23     9    10 1   
    24     9    28 1   
    25     9    29 1   
    26    10    13 1   
    27    10    17 2   
    28    11    13 1   
    29    11    14 1   
    30    11    16 2   
    31    13    30 1   
@<TRIPOS>SUBSTRUCTURE
     1 P0K         1 TEMP              0 ****  ****    0 ROOT
