@<TRIPOS>MOLECULE
P0L
   41    41     1     0     0
SMALL
No Charge or Current Charge


@<TRIPOS>ATOM
      1 C           -1.5280     2.8260    -0.0560 c          1 P0L       0.927600
      2 N            1.5720    -1.3270     1.9300 n8         1 P0L      -0.850800
      3 O           -0.8440     3.3910     0.7960 o          1 P0L      -0.850300
      4 P1           0.9380     0.3420    -0.4520 p5         1 P0L       1.253600
      5 C2          -3.3750    -3.5870    -0.1930 ca         1 P0L      -0.170000
      6 O2           0.6710    -0.6650    -1.5270 o          1 P0L      -0.835500
      7 O3           1.4570     1.6290    -1.0110 o          1 P0L      -0.835500
      8 C3           2.1140    -0.3720     0.8880 c3         1 P0L      -0.020700
      9 C4          -1.5440     1.2460    -0.1500 c3         1 P0L       0.084100
     10 O4          -0.3850     0.5950     0.4470 os         1 P0L      -0.568200
     11 C5           3.4110    -1.0100     0.3010 c3         1 P0L      -0.067400
     12 C6          -2.8070     0.6610     0.5320 c3         1 P0L      -0.039100
     13 C7          -2.6860    -3.1560     0.9530 ca         1 P0L      -0.147000
     14 C8           4.3330    -0.0880    -0.5500 c3         1 P0L      -0.063700
     15 C9          -2.9980    -0.8300     0.2750 ca         1 P0L      -0.022300
     16 C10         -2.4990    -1.7820     1.1860 ca         1 P0L      -0.119000
     17 C11          4.8680     1.1270     0.2460 c3         1 P0L      -0.077100
     18 C12          5.5040    -0.8950    -1.1570 c3         1 P0L      -0.077100
     19 C13         -3.6870    -1.2700    -0.8730 ca         1 P0L      -0.119000
     20 C14         -3.8750    -2.6440    -1.1060 ca         1 P0L      -0.147000
     21 H1          -3.5210    -4.6500    -0.3730 ha         1 P0L       0.091000
     22 H4           2.4040     0.5340     1.4330 h1         1 P0L       0.070700
     23 H5          -1.6020     1.0000    -1.2190 h1         1 P0L       0.025700
     24 H6           4.0120    -1.4130     1.1260 hc         1 P0L       0.008200
     25 H7           3.1200    -1.8730    -0.3110 hc         1 P0L       0.008200
     26 H8          -2.7580     0.8620     1.6090 hc         1 P0L       0.043200
     27 H9          -3.6860     1.2070     0.1680 hc         1 P0L       0.043200
     28 H10         -2.2970    -3.8850     1.6600 ha         1 P0L       0.098000
     29 H11          3.7540     0.2990    -1.3980 hc         1 P0L       0.096700
     30 H12         -1.9590    -1.4540     2.0730 ha         1 P0L       0.143500
     31 H13          5.5460     1.7270    -0.3740 hc         1 P0L       0.017867
     32 H14          4.0520     1.7840     0.5680 hc         1 P0L       0.017867
     33 H15          5.4190     0.7990     1.1360 hc         1 P0L       0.017867
     34 H16          5.1290    -1.7250    -1.7680 hc         1 P0L       0.017867
     35 H17          6.1240    -0.2580    -1.7990 hc         1 P0L       0.017867
     36 H18          6.1430    -1.3120    -0.3670 hc         1 P0L       0.017867
     37 H19         -4.0770    -0.5450    -1.5850 ha         1 P0L       0.143500
     38 H20         -4.4080    -2.9770    -1.9940 ha         1 P0L       0.098000
     39 OXT         -2.2030     3.4630    -0.8610 o          1 P0L      -0.850300
     40 H            1.1730    -2.1450     1.4600 hn         1 P0L       0.308800
     41 H2           2.3470    -1.6950     2.4880 hn         1 P0L       0.308800
@<TRIPOS>BOND
     1     1     3 1   
     2     1     9 1   
     3     1    39 1   
     4     2     8 1   
     5     2    40 1   
     6     2    41 1   
     7     4     6 1   
     8     4     7 1   
     9     4     8 1   
    10     4    10 1   
    11     5    13 ar  
    12     5    20 ar  
    13     5    21 1   
    14     8    11 1   
    15     8    22 1   
    16     9    10 1   
    17     9    12 1   
    18     9    23 1   
    19    11    14 1   
    20    11    24 1   
    21    11    25 1   
    22    12    15 1   
    23    12    26 1   
    24    12    27 1   
    25    13    16 ar  
    26    13    28 1   
    27    14    17 1   
    28    14    18 1   
    29    14    29 1   
    30    15    16 ar  
    31    15    19 ar  
    32    16    30 1   
    33    17    31 1   
    34    17    32 1   
    35    17    33 1   
    36    18    34 1   
    37    18    35 1   
    38    18    36 1   
    39    19    20 ar  
    40    19    37 1   
    41    20    38 1   
@<TRIPOS>SUBSTRUCTURE
     1 P0L         1 TEMP              0 ****  ****    0 ROOT
