@<TRIPOS>MOLECULE
P0L
   41    41     1     0     0
SMALL
bcc


@<TRIPOS>ATOM
      1 C           -1.3230     2.6740    -0.2800 c          1 P0L       0.927600
      2 N            1.4040    -1.5450     1.5090 n8         1 P0L      -0.850800
      3 O           -0.8020     3.2160     0.7100 o          1 P0L      -0.850300
      4 P1           1.0120     0.1320    -0.5750 p5         1 P0L       1.253600
      5 C2          -3.5570    -3.4960    -0.0160 ca         1 P0L      -0.170000
      6 O2           0.6570    -1.0310    -1.4710 o          1 P0L      -0.835500
      7 O3           1.5640     1.3820    -1.2140 o          1 P0L      -0.835500
      8 C3           2.1080    -0.4970     0.7680 c3         1 P0L      -0.020700
      9 C4          -1.3960     1.1330    -0.2870 c3         1 P0L       0.084100
     10 O4          -0.2880     0.5370     0.3500 os         1 P0L      -0.568200
     11 C5           3.4480    -0.9950     0.2090 c3         1 P0L      -0.067400
     12 C6          -2.6580     0.6920     0.4630 c3         1 P0L      -0.039100
     13 C7          -2.5000    -3.0960     0.7930 ca         1 P0L      -0.147000
     14 C8           4.3700     0.0220    -0.4700 c3         1 P0L      -0.063700
     15 C9          -2.9660    -0.7720     0.3110 ca         1 P0L      -0.022300
     16 C10         -2.2050    -1.7490     0.9530 ca         1 P0L      -0.119000
     17 C11          4.6410     1.2340     0.4150 c3         1 P0L      -0.077100
     18 C12          5.6780    -0.6560    -0.8680 c3         1 P0L      -0.077100
     19 C13         -4.0200    -1.1860    -0.5010 ca         1 P0L      -0.119000
     20 C14         -4.3170    -2.5330    -0.6660 ca         1 P0L      -0.147000
     21 H1          -3.7870    -4.5470    -0.1370 ha         1 P0L       0.091000
     22 H4           2.2990     0.3290     1.4620 h1         1 P0L       0.070700
     23 H5          -1.4860     0.7890    -1.3260 h1         1 P0L       0.025700
     24 H6           4.0010    -1.4420     1.0470 hc         1 P0L       0.008200
     25 H7           3.2490    -1.8130    -0.4910 hc         1 P0L       0.008200
     26 H8          -2.5350     0.9500     1.5190 hc         1 P0L       0.043200
     27 H9          -3.5030     1.2770     0.0920 hc         1 P0L       0.043200
     28 H10         -1.8990    -3.8390     1.3020 ha         1 P0L       0.098000
     29 H11          3.8800     0.3770    -1.3790 hc         1 P0L       0.096700
     30 H12         -1.3640    -1.4580     1.5680 ha         1 P0L       0.143500
     31 H13          5.3470     1.9170    -0.0630 hc         1 P0L       0.017867
     32 H14          3.7270     1.7940     0.6110 hc         1 P0L       0.017867
     33 H15          5.0710     0.9350     1.3750 hc         1 P0L       0.017867
     34 H16          5.5010    -1.5070    -1.5290 hc         1 P0L       0.017867
     35 H17          6.3400     0.0370    -1.3910 hc         1 P0L       0.017867
     36 H18          6.2130    -1.0260     0.0100 hc         1 P0L       0.017867
     37 H19         -4.6210    -0.4420    -1.0120 ha         1 P0L       0.143500
     38 H20         -5.1450    -2.8280    -1.2980 ha         1 P0L       0.098000
     39 OXT         -1.8600     3.2420    -1.2540 o          1 P0L      -0.850300
     40 H            1.0000    -2.2040     0.8540 hn         1 P0L       0.308800
     41 H2           2.0750    -2.0740     2.0560 hn         1 P0L       0.308800
@<TRIPOS>BOND
     1     1     3 1   
     2     1     9 1   
     3     1    39 1   
     4     2     8 1   
     5     2    40 1   
     6     2    41 1   
     7     4     6 1   
     8     4     7 1   
     9     4     8 1   
    10     4    10 1   
    11     5    13 ar  
    12     5    20 ar  
    13     5    21 1   
    14     8    11 1   
    15     8    22 1   
    16     9    10 1   
    17     9    12 1   
    18     9    23 1   
    19    11    14 1   
    20    11    24 1   
    21    11    25 1   
    22    12    15 1   
    23    12    26 1   
    24    12    27 1   
    25    13    16 ar  
    26    13    28 1   
    27    14    17 1   
    28    14    18 1   
    29    14    29 1   
    30    15    16 ar  
    31    15    19 ar  
    32    16    30 1   
    33    17    31 1   
    34    17    32 1   
    35    17    33 1   
    36    18    34 1   
    37    18    35 1   
    38    18    36 1   
    39    19    20 ar  
    40    19    37 1   
    41    20    38 1   
@<TRIPOS>SUBSTRUCTURE
     1 P0L         1 TEMP              0 ****  ****    0 ROOT
