@<TRIPOS>MOLECULE
P0M
   28    29     1     0     0
SMALL
No Charge or Current Charge


@<TRIPOS>ATOM
      1 C5           2.5910   -20.8800   -16.7290 ca         1 P0M      -0.007000
      2 C6           3.8230   -21.2270   -17.3090 ca         1 P0M      -0.186000
      3 C7           5.0230   -20.9290   -16.6510 ca         1 P0M       0.168100
      4 C8           4.9980   -20.2830   -15.4100 ca         1 P0M      -0.247000
      5 O1           3.7830   -19.3020   -13.6120 os         1 P0M      -0.352200
      6 C3           1.3810   -19.2060   -13.6040 cc         1 P0M      -0.332200
      7 C2           2.6560   -18.9120   -12.9450 c          1 P0M       0.685300
      8 N           -1.7950   -21.8250   -16.0500 n8         1 P0M      -1.007200
      9 C           -0.5820   -21.9790   -13.7270 c          1 P0M       0.688000
     10 CG           1.2920   -19.8400   -14.8220 cd         1 P0M       0.084600
     11 CB          -0.0680   -20.1110   -15.4350 c3         1 P0M      -0.031200
     12 CA          -0.5320   -21.5810   -15.2600 c3         1 P0M       0.015500
     13 C8A          3.7710   -19.9350   -14.8280 ca         1 P0M       0.213100
     14 O3           6.2100   -21.2690   -17.2210 oh         1 P0M      -0.540100
     15 C4A          2.5540   -20.2270   -15.4760 ca         1 P0M      -0.147800
     16 H1           1.6770   -21.1250   -17.2640 ha         1 P0M       0.129000
     17 H2           3.8450   -21.7290   -18.2730 ha         1 P0M       0.122000
     18 H3           5.9220   -20.0460   -14.8900 ha         1 P0M       0.124000
     19 H4           0.5040   -18.8900   -13.0540 ha         1 P0M       0.222000
     20 H6          -2.0510   -22.8180   -15.9750 hn         1 P0M       0.388000
     21 H7          -2.5720   -21.3510   -15.5710 hn         1 P0M       0.388000
     22 H9          -0.0530   -19.8510   -16.5000 hc         1 P0M       0.043700
     23 H10         -0.8180   -19.4480   -14.9870 hc         1 P0M       0.043700
     24 H11          0.2400   -22.2190   -15.7130 h1         1 P0M       0.040700
     25 H12          6.9310   -20.9850   -16.6210 ho         1 P0M       0.461000
     26 O2           2.7170   -18.3490   -11.8620 o          1 P0M      -0.521000
     27 OXT         -1.4510   -21.4780   -13.0250 o          1 P0M      -0.722500
     28 O            0.1680   -22.8620   -13.3330 o          1 P0M      -0.722500
@<TRIPOS>BOND
     1     1     2 ar  
     2     1    15 ar  
     3     1    16 1   
     4     2     3 ar  
     5     2    17 1   
     6     3     4 ar  
     7     3    14 1   
     8     4    13 ar  
     9     4    18 1   
    10     5     7 1   
    11     5    13 1   
    12     6     7 1   
    13     6    10 2   
    14     6    19 1   
    15     7    26 2   
    16     8    12 1   
    17     8    20 1   
    18     8    21 1   
    19     9    12 1   
    20     9    27 1   
    21     9    28 1   
    22    10    11 1   
    23    10    15 1   
    24    11    12 1   
    25    11    22 1   
    26    11    23 1   
    27    12    24 1   
    28    13    15 ar  
    29    14    25 1   
@<TRIPOS>SUBSTRUCTURE
     1 P0M         1 TEMP              0 ****  ****    0 ROOT
