@<TRIPOS>MOLECULE
P0M
   28    29     1     0     0
SMALL
abcg2


@<TRIPOS>ATOM
      1 C5           2.5820   -20.8640   -16.7200 ca         1 P0M      -0.007000
      2 C6           3.7940   -21.2300   -17.2580 ca         1 P0M      -0.186000
      3 C7           4.9760   -20.9640   -16.5530 ca         1 P0M       0.168100
      4 C8           4.9220   -20.3280   -15.3210 ca         1 P0M      -0.247000
      5 O1           3.6980   -19.3380   -13.6080 os         1 P0M      -0.352200
      6 C3           1.3200   -19.1670   -13.6640 cc         1 P0M      -0.332200
      7 C2           2.5650   -18.8980   -12.9930 c          1 P0M       0.685300
      8 N           -1.8430   -21.7010   -15.8810 n8         1 P0M      -1.007200
      9 C           -0.3470   -22.0280   -13.8620 c          1 P0M       0.688000
     10 CG           1.2570   -19.8160   -14.8480 cd         1 P0M       0.084600
     11 CB          -0.0660   -20.1160   -15.4760 c3         1 P0M      -0.031200
     12 CA          -0.4940   -21.5910   -15.3400 c3         1 P0M       0.015500
     13 C8A          3.6870   -19.9650   -14.8050 ca         1 P0M       0.213100
     14 O3           6.1290   -21.3430   -17.1190 oh         1 P0M      -0.540100
     15 C4A          2.4910   -20.2270   -15.4750 ca         1 P0M      -0.147800
     16 H1           1.6820   -21.0740   -17.2820 ha         1 P0M       0.129000
     17 H2           3.8410   -21.7190   -18.2220 ha         1 P0M       0.122000
     18 H3           5.8250   -20.1090   -14.7630 ha         1 P0M       0.124000
     19 H4           0.4220   -18.8340   -13.1610 ha         1 P0M       0.222000
     20 H6          -2.0820   -22.6820   -15.9660 hn         1 P0M       0.388000
     21 H7          -2.4790   -21.3350   -15.1810 hn         1 P0M       0.388000
     22 H9          -0.0570   -19.8490   -16.5350 hc         1 P0M       0.043700
     23 H10         -0.8280   -19.4950   -14.9990 hc         1 P0M       0.043700
     24 H11          0.1650   -22.2070   -15.9560 h1         1 P0M       0.040700
     25 H12          6.8820   -21.1110   -16.5620 ho         1 P0M       0.461000
     26 O2           2.7020   -18.3270   -11.9380 o          1 P0M      -0.521000
     27 OXT         -1.2430   -21.6380   -13.0860 o          1 P0M      -0.722500
     28 O            0.6630   -22.6980   -13.5730 o          1 P0M      -0.722500
@<TRIPOS>BOND
     1     1     2 ar  
     2     1    15 ar  
     3     1    16 1   
     4     2     3 ar  
     5     2    17 1   
     6     3     4 ar  
     7     3    14 1   
     8     4    13 ar  
     9     4    18 1   
    10     5     7 1   
    11     5    13 1   
    12     6     7 1   
    13     6    10 2   
    14     6    19 1   
    15     7    26 2   
    16     8    12 1   
    17     8    20 1   
    18     8    21 1   
    19     9    12 1   
    20     9    27 1   
    21     9    28 1   
    22    10    11 1   
    23    10    15 1   
    24    11    12 1   
    25    11    22 1   
    26    11    23 1   
    27    12    24 1   
    28    13    15 ar  
    29    14    25 1   
@<TRIPOS>SUBSTRUCTURE
     1 P0M         1 TEMP              0 ****  ****    0 ROOT
