@<TRIPOS>MOLECULE
P0N
   31    32     1     0     0
SMALL
No Charge or Current Charge


@<TRIPOS>ATOM
      1 C10         26.2860   -23.7220    31.1640 ca         1 P0N      -0.099000
      2 C15         24.9400   -28.5750    27.1170 c6         1 P0N       0.128600
      3 C02         23.3860   -28.5520    26.8930 c6         1 P0N       0.144200
      4 C03         23.0150   -29.3860    25.6350 c3         1 P0N      -0.080100
      5 C05         23.4130   -26.1830    27.6810 c6         1 P0N       0.127800
      6 C06         24.9580   -26.2860    27.8870 c6         1 P0N       0.172600
      7 C07         25.4390   -25.3780    29.0320 ca         1 P0N      -0.068300
      8 C08         25.4180   -25.8510    30.3640 ca         1 P0N      -0.078000
      9 C09         25.8430   -25.0290    31.4220 ca         1 P0N      -0.111000
     10 C11         26.2990   -23.2370    29.8460 ca         1 P0N      -0.105000
     11 C12         25.8760   -24.0550    28.7840 ca         1 P0N       0.129000
     12 N04         22.8990   -27.1600    26.6660 n7         1 P0N      -0.848400
     13 O14         25.3290   -27.6580    28.1660 os         1 P0N      -0.455000
     14 Cl1         25.8910   -23.3770    27.1550 cl         1 P0N      -0.223000
     15 H1          26.6140   -23.0850    31.9830 ha         1 P0N       0.119000
     16 H2          25.2670   -29.5890    27.3890 h1         1 P0N       0.050700
     17 H3          25.4600   -28.2940    26.1890 h1         1 P0N       0.050700
     18 H4          22.8770   -28.6560    29.0480 hc         1 P0N       0.041533
     19 H5          21.5470   -29.1210    27.9790 hc         1 P0N       0.041533
     20 H6          22.9020   -30.2250    28.2470 hc         1 P0N       0.041533
     21 H7          23.3310   -30.4310    25.7430 hc         1 P0N       0.041533
     22 H8          21.9330   -29.3860    25.4560 hc         1 P0N       0.041533
     23 H9          23.5000   -28.9900    24.7340 hc         1 P0N       0.041533
     24 H10         23.1540   -25.1590    27.3730 h1         1 P0N       0.067700
     25 H11         22.9170   -26.3590    28.6470 h1         1 P0N       0.067700
     26 H12         25.4600   -25.9940    26.9530 h1         1 P0N       0.051700
     27 H13         25.0720   -26.8590    30.5820 ha         1 P0N       0.134000
     28 H14         25.8250   -25.4050    32.4420 ha         1 P0N       0.119000
     29 H15         26.6350   -22.2230    29.6460 ha         1 P0N       0.130000
     30 H16         23.2350   -26.8590    25.7440 hn         1 P0N       0.405000
     31 C01         22.6350   -29.1700    28.1110 c3         1 P0N      -0.080100
@<TRIPOS>BOND
     1     1     9 ar  
     2     1    10 ar  
     3     1    15 1   
     4     2     3 1   
     5     2    13 1   
     6     2    16 1   
     7     2    17 1   
     8     3     4 1   
     9     3    12 1   
    10     3    31 1   
    11     4    21 1   
    12     4    22 1   
    13     4    23 1   
    14     5     6 1   
    15     5    12 1   
    16     5    24 1   
    17     5    25 1   
    18     6     7 1   
    19     6    13 1   
    20     6    26 1   
    21     7     8 ar  
    22     7    11 ar  
    23     8     9 ar  
    24     8    27 1   
    25     9    28 1   
    26    10    11 ar  
    27    10    29 1   
    28    11    14 1   
    29    12    30 1   
    30    18    31 1   
    31    19    31 1   
    32    20    31 1   
@<TRIPOS>SUBSTRUCTURE
     1 P0N         1 TEMP              0 ****  ****    0 ROOT
