@<TRIPOS>MOLECULE
P0N
   31    32     1     0     0
SMALL
abcg2


@<TRIPOS>ATOM
      1 C10         26.2390   -23.7630    31.1290 ca         1 P0N      -0.099000
      2 C15         24.8860   -28.5750    27.1840 c6         1 P0N       0.128600
      3 C02         23.3750   -28.5280    26.9160 c6         1 P0N       0.144200
      4 C03         23.0640   -29.3480    25.6680 c3         1 P0N      -0.080100
      5 C05         23.4670   -26.1800    27.6490 c6         1 P0N       0.127800
      6 C06         24.9780   -26.3260    27.8930 c6         1 P0N       0.172600
      7 C07         25.4480   -25.4350    29.0080 ca         1 P0N      -0.068300
      8 C08         25.5290   -25.9150    30.3170 ca         1 P0N      -0.078000
      9 C09         25.9200   -25.0950    31.3680 ca         1 P0N      -0.111000
     10 C11         26.1640   -23.2570    29.8370 ca         1 P0N      -0.105000
     11 C12         25.7700   -24.0930    28.8000 ca         1 P0N       0.129000
     12 N04         22.9570   -27.1290    26.6620 n7         1 P0N      -0.848400
     13 O14         25.2780   -27.6810    28.2240 os         1 P0N      -0.455000
     14 CL1         25.6860   -23.4030    27.1850 cl         1 P0N      -0.223000
     15 H1          26.5470   -23.1160    31.9390 ha         1 P0N       0.119000
     16 H2          25.1970   -29.5700    27.5060 h1         1 P0N       0.050700
     17 H3          25.4240   -28.3170    26.2620 h1         1 P0N       0.050700
     18 H4          22.8280   -28.5410    29.0310 hc         1 P0N       0.041533
     19 H5          21.5260   -29.0090    27.9280 hc         1 P0N       0.041533
     20 H6          22.8540   -30.1320    28.2710 hc         1 P0N       0.041533
     21 H7          23.3640   -30.3880    25.8060 hc         1 P0N       0.041533
     22 H8          21.9930   -29.3230    25.4590 hc         1 P0N       0.041533
     23 H9          23.5940   -28.9500    24.7990 hc         1 P0N       0.041533
     24 H10         23.2460   -25.1680    27.3100 h1         1 P0N       0.067700
     25 H11         22.9510   -26.3300    28.6010 h1         1 P0N       0.067700
     26 H12         25.5060   -26.0710    26.9660 h1         1 P0N       0.051700
     27 H13         25.2850   -26.9530    30.4980 ha         1 P0N       0.134000
     28 H14         25.9750   -25.4970    32.3720 ha         1 P0N       0.119000
     29 H15         26.4090   -22.2240    29.6310 ha         1 P0N       0.130000
     30 H16         23.3000   -26.8570    25.7450 hn         1 P0N       0.405000
     31 C01         22.5990   -29.0820    28.1130 c3         1 P0N      -0.080100
@<TRIPOS>BOND
     1     1     9 ar  
     2     1    10 ar  
     3     1    15 1   
     4     2     3 1   
     5     2    13 1   
     6     2    16 1   
     7     2    17 1   
     8     3     4 1   
     9     3    12 1   
    10     3    31 1   
    11     4    21 1   
    12     4    22 1   
    13     4    23 1   
    14     5     6 1   
    15     5    12 1   
    16     5    24 1   
    17     5    25 1   
    18     6     7 1   
    19     6    13 1   
    20     6    26 1   
    21     7     8 ar  
    22     7    11 ar  
    23     8     9 ar  
    24     8    27 1   
    25     9    28 1   
    26    10    11 ar  
    27    10    29 1   
    28    11    14 1   
    29    12    30 1   
    30    18    31 1   
    31    19    31 1   
    32    20    31 1   
@<TRIPOS>SUBSTRUCTURE
     1 P0N         1 TEMP              0 ****  ****    0 ROOT
