@<TRIPOS>MOLECULE
P0O
   86    88     1     0     0
SMALL
No Charge or Current Charge


@<TRIPOS>ATOM
      1 N1         -20.3420    16.5320   -25.3170 n          1 P0O      -0.392800
      2 N3         -15.5900    21.2010   -24.0770 ns         1 P0O      -0.517900
      3 C4         -20.7510    16.8240   -22.7910 c3         1 P0O       0.059700
      4 C5         -19.8060    16.8440   -24.0480 c          1 P0O       0.586100
      5 C6         -21.4820    15.6010   -25.4830 c5         1 P0O       0.131000
      6 C7         -21.5060    15.2980   -26.9870 cx         1 P0O      -0.120700
      7 C8         -19.5210    16.7140   -26.5520 c5         1 P0O       0.060700
      8 C10        -17.6450    19.5900   -28.2220 c3         1 P0O       0.125900
      9 C13        -18.0740    19.1150   -32.1110 c          1 P0O       0.571300
     10 C15        -16.3640    19.9440   -27.4250 c3         1 P0O      -0.070400
     11 C17        -17.4310    21.3510   -25.4750 c5         1 P0O      -0.094400
     12 C20        -20.3240    15.9690   -27.6350 cx         1 P0O      -0.132700
     13 C21        -20.3700    14.4510   -27.5450 cx         1 P0O      -0.075000
     14 C22        -19.4190    13.6470   -26.6410 c3         1 P0O      -0.065600
     15 C26        -18.6580    12.4290   -20.2330 c3         1 P0O      -0.104433
     16 C28        -17.2760    13.9120   -18.7340 c3         1 P0O      -0.104433
     17 C11        -17.3920    19.4770   -29.7120 c2         1 P0O      -0.149200
     18 C12        -18.3420    19.2310   -30.6490 ce         1 P0O      -0.316200
     19 C14        -19.2700    18.7960   -33.0020 c3         1 P0O      -0.195100
     20 C16        -16.5580    20.1340   -25.8920 c5         1 P0O      -0.158700
     21 C18        -17.0120    21.5280   -23.9910 c5         1 P0O       0.100000
     22 C19        -15.2550    20.3860   -25.1240 c          1 P0O       0.564000
     23 C2         -21.4770    18.1900   -22.5010 c3         1 P0O      -0.043000
     24 C23        -20.6280    13.6690   -28.8320 c3         1 P0O      -0.065600
     25 C25        -17.8100    13.7250   -20.1730 c3         1 P0O       0.149400
     26 C27        -16.6110    13.6350   -21.1510 c3         1 P0O      -0.104433
     27 C29        -22.3300    18.0720   -21.2040 c3         1 P0O      -0.088433
     28 C3         -20.4540    19.3460   -22.3220 c3         1 P0O      -0.088433
     29 C9         -19.3010    18.2170   -26.9110 c          1 P0O       0.595100
     30 N2         -18.2180    18.3270   -27.7590 ns         1 P0O      -0.493900
     31 N4         -19.9810    16.3360   -21.6280 ns         1 P0O      -0.510900
     32 N5         -18.6390    14.8970   -20.4820 ns         1 P0O      -0.513900
     33 O1         -16.9530    19.2610   -32.5790 o          1 P0O      -0.526100
     34 O2         -14.1010    20.1550   -25.4470 o          1 P0O      -0.555000
     35 O3         -19.9730    19.1760   -26.5510 o          1 P0O      -0.606100
     36 O4         -18.6350    17.2150   -23.9650 o          1 P0O      -0.628100
     37 O5         -19.3230    14.4250   -22.6310 o          1 P0O      -0.657100
     38 H1         -14.8540    21.5680   -23.4840 hn         1 P0O       0.325500
     39 H2         -21.5270    16.0730   -22.9740 h1         1 P0O       0.089700
     40 H3         -22.4120    16.0800   -25.1570 h1         1 P0O       0.066200
     41 H4         -21.3530    14.6940   -24.8760 h1         1 P0O       0.066200
     42 H5         -22.4580    15.2890   -27.5140 hc         1 P0O       0.100700
     43 H6         -18.5260    16.2710   -26.4130 h1         1 P0O       0.083700
     44 H7         -18.3780    20.3950   -28.0650 h1         1 P0O       0.094700
     45 H8         -15.6250    19.1510   -27.5980 hc         1 P0O       0.063200
     46 H9         -15.9310    20.8590   -27.8480 hc         1 P0O       0.063200
     47 H10        -17.1760    22.2430   -26.0590 hc         1 P0O       0.063200
     48 H11        -18.5070    21.1800   -25.5870 hc         1 P0O       0.063200
     49 H12        -20.4560    16.4250   -28.6150 hc         1 P0O       0.101700
     50 H13        -19.1880    14.1370   -25.6900 hc         1 P0O       0.042033
     51 H14        -19.8530    12.6690   -26.3970 hc         1 P0O       0.042033
     52 H15        -18.4640    13.4670   -27.1490 hc         1 P0O       0.042033
     53 H16        -19.5340    12.5060   -19.5770 hc         1 P0O       0.044700
     54 H17        -19.0120    12.2240   -21.2500 hc         1 P0O       0.044700
     55 H18        -18.0670    11.5640   -19.9090 hc         1 P0O       0.044700
     56 H19        -18.1010    13.9860   -18.0160 hc         1 P0O       0.044700
     57 H20        -16.6440    13.0660   -18.4370 hc         1 P0O       0.044700
     58 H21        -16.6740    14.8260   -18.6550 hc         1 P0O       0.044700
     59 H22        -22.9620    19.4950   -23.4580 hc         1 P0O       0.039700
     60 H23        -21.8970    18.6840   -24.6080 hc         1 P0O       0.039700
     61 H24        -23.1970    17.7760   -23.8070 hc         1 P0O       0.039700
     62 H25        -16.3490    19.6120   -30.0080 ha         1 P0O       0.197000
     63 H27        -19.3810    19.0930   -30.3520 ha         1 P0O       0.182000
     64 H29        -19.0020    18.7190   -34.0620 hc         1 P0O       0.060367
     65 H30        -19.7490    17.8810   -32.6370 hc         1 P0O       0.060367
     66 H31        -20.0480    19.5480   -32.8330 hc         1 P0O       0.060367
     67 H32        -17.0030    19.2310   -25.4560 hc         1 P0O       0.095700
     68 H33        -17.1950    22.5490   -23.6290 h1         1 P0O       0.043700
     69 H34        -17.5440    20.8250   -23.3350 h1         1 P0O       0.043700
     70 H35        -21.0860    12.6960   -28.6180 hc         1 P0O       0.042033
     71 H36        -21.3040    14.2100   -29.5060 hc         1 P0O       0.042033
     72 H37        -19.6930    13.4900   -29.3780 hc         1 P0O       0.042033
     73 H38        -15.9370    12.8190   -20.8640 hc         1 P0O       0.044700
     74 H39        -16.9400    13.4450   -22.1780 hc         1 P0O       0.044700
     75 H40        -16.0340    14.5680   -21.1460 hc         1 P0O       0.044700
     76 H41        -21.7030    17.9180   -20.3180 hc         1 P0O       0.039700
     77 H42        -22.9140    18.9850   -21.0350 hc         1 P0O       0.039700
     78 H43        -23.0330    17.2330   -21.2730 hc         1 P0O       0.039700
     79 H44        -19.7310    19.1210   -21.5290 hc         1 P0O       0.039700
     80 H45        -19.8960    19.5320   -23.2480 hc         1 P0O       0.039700
     81 H46        -20.9630    20.2800   -22.0540 hc         1 P0O       0.039700
     82 H47        -17.7600    17.4680   -28.0340 hn         1 P0O       0.322500
     83 H48        -19.9120    16.9100   -20.7990 hn         1 P0O       0.314500
     84 H49        -18.7260    15.5990   -19.7610 hn         1 P0O       0.303500
     85 C24        -19.3070    15.1510   -21.6530 c          1 P0O       0.651100
     86 C1         -22.4380    18.5540   -23.6650 c3         1 P0O      -0.088433
@<TRIPOS>BOND
     1     1     4 1   
     2     1     5 1   
     3     1     7 1   
     4     2    21 1   
     5     2    22 1   
     6     2    38 1   
     7     3     4 1   
     8     3    23 1   
     9     3    31 1   
    10     3    39 1   
    11     4    36 2   
    12     5     6 1   
    13     5    40 1   
    14     5    41 1   
    15     6    12 1   
    16     6    13 1   
    17     6    42 1   
    18     7    12 1   
    19     7    29 1   
    20     7    43 1   
    21     8    10 1   
    22     8    17 1   
    23     8    30 1   
    24     8    44 1   
    25     9    18 1   
    26     9    19 1   
    27     9    33 2   
    28    10    20 1   
    29    10    45 1   
    30    10    46 1   
    31    11    20 1   
    32    11    21 1   
    33    11    47 1   
    34    11    48 1   
    35    12    13 1   
    36    12    49 1   
    37    13    14 1   
    38    13    24 1   
    39    14    50 1   
    40    14    51 1   
    41    14    52 1   
    42    15    25 1   
    43    15    53 1   
    44    15    54 1   
    45    15    55 1   
    46    16    25 1   
    47    16    56 1   
    48    16    57 1   
    49    16    58 1   
    50    17    18 2   
    51    17    62 1   
    52    18    63 1   
    53    19    64 1   
    54    19    65 1   
    55    19    66 1   
    56    20    22 1   
    57    20    67 1   
    58    21    68 1   
    59    21    69 1   
    60    22    34 2   
    61    23    27 1   
    62    23    28 1   
    63    23    86 1   
    64    24    70 1   
    65    24    71 1   
    66    24    72 1   
    67    25    26 1   
    68    25    32 1   
    69    26    73 1   
    70    26    74 1   
    71    26    75 1   
    72    27    76 1   
    73    27    77 1   
    74    27    78 1   
    75    28    79 1   
    76    28    80 1   
    77    28    81 1   
    78    29    30 1   
    79    29    35 2   
    80    30    82 1   
    81    31    83 1   
    82    31    85 1   
    83    32    84 1   
    84    32    85 1   
    85    37    85 2   
    86    59    86 1   
    87    60    86 1   
    88    61    86 1   
@<TRIPOS>SUBSTRUCTURE
     1 P0O         1 TEMP              0 ****  ****    0 ROOT
