@<TRIPOS>MOLECULE
P0O
   86    88     1     0     0
SMALL
abcg2


@<TRIPOS>ATOM
      1 N1         -20.0610    16.5610   -25.3720 n          1 P0O      -0.392800
      2 N3         -17.6070    22.4420   -24.1310 ns         1 P0O      -0.517900
      3 C4         -19.9760    16.9480   -22.9280 c3         1 P0O       0.059700
      4 C5         -19.3460    17.0040   -24.3220 c          1 P0O       0.586100
      5 C6         -21.4050    15.9850   -25.3530 c5         1 P0O       0.131000
      6 C7         -21.5940    15.4140   -26.7360 cx         1 P0O      -0.120700
      7 C8         -19.4970    16.6570   -26.7100 c5         1 P0O       0.060700
      8 C10        -18.1900    19.9200   -28.1740 c3         1 P0O       0.125900
      9 C13        -16.8750    19.0290   -31.7180 c          1 P0O       0.571300
     10 C15        -17.2710    20.7280   -27.2440 c3         1 P0O      -0.070400
     11 C17        -19.1130    21.7710   -25.7650 c5         1 P0O      -0.094400
     12 C20        -20.4190    15.8280   -27.5740 cx         1 P0O      -0.132700
     13 C21        -20.6300    14.3780   -27.2390 cx         1 P0O      -0.075000
     14 C22        -19.7100    13.6140   -26.3160 c3         1 P0O      -0.065600
     15 C26        -19.2880    12.6210   -19.7800 c3         1 P0O      -0.104433
     16 C28        -16.8100    12.8640   -19.8510 c3         1 P0O      -0.104433
     17 C11        -17.6540    19.9470   -29.5710 c2         1 P0O      -0.149200
     18 C12        -17.4230    18.8900   -30.3480 ce         1 P0O      -0.316200
     19 C14        -16.6650    17.7370   -32.4570 c3         1 P0O      -0.195100
     20 C16        -17.8490    20.9140   -25.8510 c5         1 P0O      -0.158700
     21 C18        -19.0330    22.4140   -24.3780 c5         1 P0O       0.100000
     22 C19        -16.8840    21.6150   -24.9040 c          1 P0O       0.564000
     23 C2         -20.3350    18.3560   -22.3760 c3         1 P0O      -0.043000
     24 C23        -21.1290    13.5310   -28.3890 c3         1 P0O      -0.065600
     25 C25        -18.0940    12.9600   -20.6750 c3         1 P0O       0.149400
     26 C27        -18.0000    11.9770   -21.8420 c3         1 P0O      -0.104433
     27 C29        -21.1340    18.1610   -21.0850 c3         1 P0O      -0.088433
     28 C3         -19.1120    19.2230   -22.0720 c3         1 P0O      -0.088433
     29 C9         -19.5360    18.1100   -27.1830 c          1 P0O       0.595100
     30 N2         -18.3820    18.5780   -27.6830 ns         1 P0O      -0.493900
     31 N4         -19.0950    16.2360   -22.0380 ns         1 P0O      -0.510900
     32 N5         -18.1620    14.3450   -21.1530 ns         1 P0O      -0.513900
     33 O1         -16.6140    20.1090   -32.2080 o          1 P0O      -0.526100
     34 O2         -15.6780    21.4440   -24.8450 o          1 P0O      -0.555000
     35 O3         -20.5730    18.7520   -27.1280 o          1 P0O      -0.606100
     36 O4         -18.2070    17.4330   -24.4670 o          1 P0O      -0.628100
     37 O5         -20.0530    14.2130   -22.4260 o          1 P0O      -0.657100
     38 H1         -17.2010    22.9360   -23.3520 hn         1 P0O       0.325500
     39 H2         -20.9110    16.3900   -22.9620 h1         1 P0O       0.089700
     40 H3         -22.1630    16.7480   -25.1620 h1         1 P0O       0.066200
     41 H4         -21.4870    15.2250   -24.5740 h1         1 P0O       0.066200
     42 H5         -22.6010    15.4280   -27.1360 hc         1 P0O       0.100700
     43 H6         -18.4730    16.2730   -26.7120 h1         1 P0O       0.083700
     44 H7         -19.1700    20.4050   -28.1970 h1         1 P0O       0.094700
     45 H8         -16.3020    20.2260   -27.1820 hc         1 P0O       0.063200
     46 H9         -17.0910    21.7070   -27.6980 hc         1 P0O       0.063200
     47 H10        -19.0880    22.5470   -26.5340 hc         1 P0O       0.063200
     48 H11        -20.0280    21.1990   -25.9000 hc         1 P0O       0.063200
     49 H12        -20.5410    16.1380   -28.6060 hc         1 P0O       0.101700
     50 H13        -19.3360    14.1950   -25.4760 hc         1 P0O       0.042033
     51 H14        -20.2290    12.7460   -25.9060 hc         1 P0O       0.042033
     52 H15        -18.8440    13.2460   -26.8710 hc         1 P0O       0.042033
     53 H16        -19.3520    13.3170   -18.9420 hc         1 P0O       0.044700
     54 H17        -20.2270    12.6580   -20.3310 hc         1 P0O       0.044700
     55 H18        -19.1800    11.6140   -19.3730 hc         1 P0O       0.044700
     56 H19        -16.8300    13.5480   -18.9990 hc         1 P0O       0.044700
     57 H20        -16.6900    11.8540   -19.4610 hc         1 P0O       0.044700
     58 H21        -15.9330    13.0970   -20.4570 hc         1 P0O       0.044700
     59 H22        -21.5400    20.0390   -22.9890 hc         1 P0O       0.039700
     60 H23        -20.6910    19.2860   -24.3280 hc         1 P0O       0.039700
     61 H24        -22.1140    18.5040   -23.6320 hc         1 P0O       0.039700
     62 H25        -17.4410    20.9410   -29.9540 ha         1 P0O       0.197000
     63 H27        -17.6300    17.8840   -30.0010 ha         1 P0O       0.182000
     64 H29        -16.2610    17.9030   -33.4530 hc         1 P0O       0.060367
     65 H30        -15.9870    17.0920   -31.8950 hc         1 P0O       0.060367
     66 H31        -17.6100    17.1950   -32.5360 hc         1 P0O       0.060367
     67 H32        -18.0390    19.9310   -25.4020 hc         1 P0O       0.095700
     68 H33        -19.4550    23.4180   -24.3590 h1         1 P0O       0.043700
     69 H34        -19.5520    21.8160   -23.6230 h1         1 P0O       0.043700
     70 H35        -21.6780    12.6610   -28.0220 hc         1 P0O       0.042033
     71 H36        -21.7960    14.0880   -29.0490 hc         1 P0O       0.042033
     72 H37        -20.2950    13.1660   -28.9910 hc         1 P0O       0.042033
     73 H38        -17.8480    10.9660   -21.4590 hc         1 P0O       0.044700
     74 H39        -18.9050    11.9740   -22.4450 hc         1 P0O       0.044700
     75 H40        -17.1550    12.2210   -22.4880 hc         1 P0O       0.044700
     76 H41        -20.5470    17.6560   -20.3180 hc         1 P0O       0.039700
     77 H42        -21.4420    19.1280   -20.6850 hc         1 P0O       0.039700
     78 H43        -22.0370    17.5730   -21.2620 hc         1 P0O       0.039700
     79 H44        -18.4500    18.7670   -21.3340 hc         1 P0O       0.039700
     80 H45        -18.5280    19.4480   -22.9620 hc         1 P0O       0.039700
     81 H46        -19.4440    20.1740   -21.6490 hc         1 P0O       0.039700
     82 H47        -17.5580    18.0000   -27.5990 hn         1 P0O       0.322500
     83 H48        -18.2390    16.7000   -21.7800 hn         1 P0O       0.314500
     84 H49        -17.5680    14.9960   -20.6620 hn         1 P0O       0.303500
     85 C24        -19.1590    14.8740   -21.9050 c          1 P0O       0.651100
     86 C1         -21.2160    19.0790   -23.3940 c3         1 P0O      -0.088433
@<TRIPOS>BOND
     1     1     4 1   
     2     1     5 1   
     3     1     7 1   
     4     2    21 1   
     5     2    22 1   
     6     2    38 1   
     7     3     4 1   
     8     3    23 1   
     9     3    31 1   
    10     3    39 1   
    11     4    36 2   
    12     5     6 1   
    13     5    40 1   
    14     5    41 1   
    15     6    12 1   
    16     6    13 1   
    17     6    42 1   
    18     7    12 1   
    19     7    29 1   
    20     7    43 1   
    21     8    10 1   
    22     8    17 1   
    23     8    30 1   
    24     8    44 1   
    25     9    18 1   
    26     9    19 1   
    27     9    33 2   
    28    10    20 1   
    29    10    45 1   
    30    10    46 1   
    31    11    20 1   
    32    11    21 1   
    33    11    47 1   
    34    11    48 1   
    35    12    13 1   
    36    12    49 1   
    37    13    14 1   
    38    13    24 1   
    39    14    50 1   
    40    14    51 1   
    41    14    52 1   
    42    15    25 1   
    43    15    53 1   
    44    15    54 1   
    45    15    55 1   
    46    16    25 1   
    47    16    56 1   
    48    16    57 1   
    49    16    58 1   
    50    17    18 2   
    51    17    62 1   
    52    18    63 1   
    53    19    64 1   
    54    19    65 1   
    55    19    66 1   
    56    20    22 1   
    57    20    67 1   
    58    21    68 1   
    59    21    69 1   
    60    22    34 2   
    61    23    27 1   
    62    23    28 1   
    63    23    86 1   
    64    24    70 1   
    65    24    71 1   
    66    24    72 1   
    67    25    26 1   
    68    25    32 1   
    69    26    73 1   
    70    26    74 1   
    71    26    75 1   
    72    27    76 1   
    73    27    77 1   
    74    27    78 1   
    75    28    79 1   
    76    28    80 1   
    77    28    81 1   
    78    29    30 1   
    79    29    35 2   
    80    30    82 1   
    81    31    83 1   
    82    31    85 1   
    83    32    84 1   
    84    32    85 1   
    85    37    85 2   
    86    59    86 1   
    87    60    86 1   
    88    61    86 1   
@<TRIPOS>SUBSTRUCTURE
     1 P0O         1 TEMP              0 ****  ****    0 ROOT
