@<TRIPOS>MOLECULE
P0Q
   34    35     1     0     0
SMALL
abcg2


@<TRIPOS>ATOM
      1 CAA         -1.7710    -0.2210     4.3350 c3         1 P0Q      -0.089100
      2 CAB         -1.1650    -4.5560     5.0460 c3         1 P0Q      -0.099600
      3 CAC          1.2490    -3.9120     5.0620 c3         1 P0Q      -0.099600
      4 CAE         -4.2810     1.0990     7.8850 ca         1 P0Q      -0.106000
      5 CAF         -5.4150     0.3020     7.9350 ca         1 P0Q      -0.100000
      6 CAG         -3.0670     0.5700     7.4710 ca         1 P0Q      -0.099000
      7 CAH         -4.1020    -1.5710     7.1430 ca         1 P0Q      -0.078000
      8 CAI         -0.2210    -3.1500     6.9070 c6         1 P0Q       0.164600
      9 CAL         -5.3050    -1.0290     7.5620 ca         1 P0Q       0.115000
     10 CAM         -2.9690    -0.7640     7.0920 ca         1 P0Q      -0.070300
     11 CAN         -1.6620    -1.5380     5.0840 c6         1 P0Q       0.149500
     12 CAO         -1.6640    -1.3280     6.6030 c6         1 P0Q       0.214600
     13 CAP         -0.1620    -3.4570     5.4140 c6         1 P0Q       0.153200
     14 NAJ         -0.4110    -2.1890     4.7290 n7         1 P0Q      -0.874400
     15 OAK         -1.4420    -2.5480     7.2760 os         1 P0Q      -0.448000
     16 H1          -2.7180     0.2770     4.5400 hc         1 P0Q       0.041367
     17 H2          -0.9590     0.4560     4.6050 hc         1 P0Q       0.041367
     18 H3          -1.7180    -0.3940     3.2590 hc         1 P0Q       0.041367
     19 H4          -0.8940    -5.5030     5.5160 hc         1 P0Q       0.040367
     20 H5          -2.1820    -4.3170     5.3560 hc         1 P0Q       0.040367
     21 H6          -1.1730    -4.7150     3.9650 hc         1 P0Q       0.040367
     22 H7           1.5200    -4.8180     5.6060 hc         1 P0Q       0.040367
     23 H8           1.3300    -4.1330     3.9960 hc         1 P0Q       0.040367
     24 H9           1.9800    -3.1370     5.3010 hc         1 P0Q       0.040367
     25 H10         -4.3480     2.1390     8.1770 ha         1 P0Q       0.118000
     26 H11         -6.3620     0.7090     8.2610 ha         1 P0Q       0.129000
     27 H12         -2.1880     1.2020     7.4460 ha         1 P0Q       0.117000
     28 H13         -4.0490    -2.6150     6.8610 ha         1 P0Q       0.137000
     29 H14         -0.1310    -4.0680     7.4920 h1         1 P0Q       0.053200
     30 H15          0.6210    -2.4940     7.1760 h1         1 P0Q       0.053200
     31 H16         -2.5430    -2.1490     4.8290 h1         1 P0Q       0.033700
     32 H17         -0.8540    -0.6180     6.8380 h1         1 P0Q       0.052700
     33 H18         -0.3820    -2.3320     3.7260 hn         1 P0Q       0.416000
     34 CL1         -6.7130    -2.0430     7.6240 cl         1 P0Q      -0.208000
@<TRIPOS>BOND
     1     1    11 1   
     2     1    16 1   
     3     1    17 1   
     4     1    18 1   
     5     2    13 1   
     6     2    19 1   
     7     2    20 1   
     8     2    21 1   
     9     3    13 1   
    10     3    22 1   
    11     3    23 1   
    12     3    24 1   
    13     4     5 ar  
    14     4     6 ar  
    15     4    25 1   
    16     5     9 ar  
    17     5    26 1   
    18     6    10 ar  
    19     6    27 1   
    20     7     9 ar  
    21     7    10 ar  
    22     7    28 1   
    23     8    13 1   
    24     8    15 1   
    25     8    29 1   
    26     8    30 1   
    27     9    34 1   
    28    10    12 1   
    29    11    12 1   
    30    11    14 1   
    31    11    31 1   
    32    12    15 1   
    33    12    32 1   
    34    13    14 1   
    35    14    33 1   
@<TRIPOS>SUBSTRUCTURE
     1 P0Q         1 TEMP              0 ****  ****    0 ROOT
