@<TRIPOS>MOLECULE
P0Q
   34    35     1     0     0
SMALL
No Charge or Current Charge


@<TRIPOS>ATOM
      1 CAA          0.0000     0.0000     0.0000 c3         1 P0Q      -0.089100
      2 CAB          0.0000     0.0000     0.0000 c3         1 P0Q      -0.099600
      3 CAC      2506864.2510     0.0000     0.0000 c3         1 P0Q      -0.099600
      4 CAE          0.0000     0.0000     0.0000 ca         1 P0Q      -0.106000
      5 CAF          0.0000     0.0000     0.0000 ca         1 P0Q      -0.100000
      6 CAG          0.0000     0.0000     0.0000 ca         1 P0Q      -0.099000
      7 CAH          0.0000     0.0000     0.0000 ca         1 P0Q      -0.078000
      8 CAI          0.0010     0.0000     0.0000 c6         1 P0Q       0.164600
      9 CAL          0.0000     0.0000     0.0000 ca         1 P0Q       0.115000
     10 CAM          0.0000     0.0000     0.0000 ca         1 P0Q      -0.070300
     11 CAN          0.0000     0.0000     0.0000 c6         1 P0Q       0.149500
     12 CAO          0.0000     0.0000     0.0000 c6         1 P0Q       0.214600
     13 CAP          0.0000     0.0000     0.0000 c6         1 P0Q       0.153200
     14 NAJ          0.0000     0.0000     0.0000 n7         1 P0Q      -0.874400
     15 OAK          0.0000     0.0000     0.0000 os         1 P0Q      -0.448000
     16 H1           0.0000     0.0000     0.0000 hc         1 P0Q       0.041367
     17 H2           0.0000     0.0000     0.0000 hc         1 P0Q       0.041367
     18 H3           0.0000     0.0000     0.0000 hc         1 P0Q       0.041367
     19 H4           0.0000     0.0000     0.0000 hc         1 P0Q       0.040367
     20 H5           0.0000     0.0000     0.0000 hc         1 P0Q       0.040367
     21 H6           0.0000     0.0000     0.0000 hc         1 P0Q       0.040367
     22 H7           0.0000     0.0000     0.0000 hc         1 P0Q       0.040367
     23 H8           0.0000     0.0000     0.0000 hc         1 P0Q       0.040367
     24 H9           0.0000     0.0000     0.0000 hc         1 P0Q       0.040367
     25 H10          0.0000     0.0000     0.0000 ha         1 P0Q       0.118000
     26 H11          0.0000     0.0000     0.0000 ha         1 P0Q       0.129000
     27 H12          0.0000     0.0000     0.0000 ha         1 P0Q       0.117000
     28 H13          0.0000     0.0000     0.0000 ha         1 P0Q       0.137000
     29 H14          0.0000     0.0000     0.0000 h1         1 P0Q       0.053200
     30 H15          0.0000     0.0000     0.0000 h1         1 P0Q       0.053200
     31 H16          0.0000     0.0000     0.0000 h1         1 P0Q       0.033700
     32 H17          0.0000     0.0000     0.0000 h1         1 P0Q       0.052700
     33 H18          0.0000     0.0000     0.0000 hn         1 P0Q       0.416000
     34 Cl1          0.0000     0.0000     0.0000 cl         1 P0Q      -0.208000
@<TRIPOS>BOND
     1     1    11 1   
     2     1    16 1   
     3     1    17 1   
     4     1    18 1   
     5     2    13 1   
     6     2    19 1   
     7     2    20 1   
     8     2    21 1   
     9     3    13 1   
    10     3    22 1   
    11     3    23 1   
    12     3    24 1   
    13     4     5 ar  
    14     4     6 ar  
    15     4    25 1   
    16     5     9 ar  
    17     5    26 1   
    18     6    10 ar  
    19     6    27 1   
    20     7     9 ar  
    21     7    10 ar  
    22     7    28 1   
    23     8    13 1   
    24     8    15 1   
    25     8    29 1   
    26     8    30 1   
    27     9    34 1   
    28    10    12 1   
    29    11    12 1   
    30    11    14 1   
    31    11    31 1   
    32    12    15 1   
    33    12    32 1   
    34    13    14 1   
    35    14    33 1   
@<TRIPOS>SUBSTRUCTURE
     1 P0Q         1 TEMP              0 ****  ****    0 ROOT
