@<TRIPOS>MOLECULE
P0S
   24    24     1     0     0
SMALL
bcc


@<TRIPOS>ATOM
      1 O12          2.8550     0.9210     2.2720 o          1 P0S      -0.928000
      2 O13         -0.8550    -4.0570    -0.5650 o          1 P0S      -0.928000
      3 O14          0.8810     4.0400    -0.5760 o          1 P0S      -0.928000
      4 O15         -0.0660     1.6800    -0.8120 os         1 P0S      -0.714633
      5 O01         -1.8030     0.4340     0.4880 os         1 P0S      -0.714633
      6 O02          1.7510    -0.4240     0.4720 os         1 P0S      -0.714633
      7 O07         -2.2140    -2.0370    -0.0370 os         1 P0S      -0.714633
      8 O08          2.2370     2.0480     0.0400 os         1 P0S      -0.714633
      9 O16          0.0870    -1.7090    -0.8620 os         1 P0S      -0.714633
     10 P01         -1.6840     1.4270    -0.8150 p5         1 P0S       1.570800
     11 P02          1.6900    -1.3900    -0.8520 p5         1 P0S       1.570800
     12 P03         -2.8940    -0.7560     0.7300 p5         1 P0S       1.570800
     13 P04          2.8620     0.7280     0.7890 p5         1 P0S       1.570800
     14 P05         -0.7320    -2.7310     0.1240 p5         1 P0S       1.570800
     15 P06          0.7460     2.7330     0.1470 p5         1 P0S       1.570800
     16 O04          2.4520    -2.6490    -0.5670 o          1 P0S      -0.928000
     17 O05         -2.3890     2.7100    -0.4880 o          1 P0S      -0.928000
     18 O06          1.9800    -0.6160    -2.0980 o          1 P0S      -0.928000
     19 O09         -2.9240    -0.9940     2.2070 o          1 P0S      -0.928000
     20 O10          4.1460     0.4320     0.0770 o          1 P0S      -0.928000
     21 O11         -4.1660    -0.4780    -0.0090 o          1 P0S      -0.928000
     22 O17         -0.2450    -2.6530     1.5320 o          1 P0S      -0.928000
     23 O18          0.2400     2.6850     1.5500 o          1 P0S      -0.928000
     24 O03         -1.9950     0.7030    -2.0840 o          1 P0S      -0.928000
@<TRIPOS>BOND
     1     1    13 1   
     2     2    14 1   
     3     3    15 1   
     4     4    10 1   
     5     4    15 1   
     6     5    10 1   
     7     5    12 1   
     8     6    11 1   
     9     6    13 1   
    10     7    12 1   
    11     7    14 1   
    12     8    13 1   
    13     8    15 1   
    14     9    11 1   
    15     9    14 1   
    16    10    17 1   
    17    10    24 1   
    18    11    16 1   
    19    11    18 1   
    20    12    19 1   
    21    12    21 1   
    22    13    20 1   
    23    14    22 1   
    24    15    23 1   
@<TRIPOS>SUBSTRUCTURE
     1 P0S         1 TEMP              0 ****  ****    0 ROOT
