@<TRIPOS>MOLECULE
P0S
   24    24     1     0     0
SMALL
No Charge or Current Charge


@<TRIPOS>ATOM
      1 O12          2.8600     1.1040     2.0820 o          1 P0S      -0.928000
      2 O13         -0.6860    -3.9440    -0.4680 o          1 P0S      -0.928000
      3 O14          0.6880     3.9550    -0.4010 o          1 P0S      -0.928000
      4 O15         -0.0970     1.6290    -0.9420 os         1 P0S      -0.714633
      5 O01         -1.5140     0.3170     0.4670 os         1 P0S      -0.714633
      6 O02          1.5060    -0.3200     0.4790 os         1 P0S      -0.714633
      7 O07         -2.1400    -1.9570    -0.2620 os         1 P0S      -0.714633
      8 O08          2.1390     1.9640    -0.2090 os         1 P0S      -0.714633
      9 O16          0.1040    -1.6100    -0.9650 os         1 P0S      -0.714633
     10 P01         -1.6300     1.4030    -0.6660 p5         1 P0S       1.570800
     11 P02          1.6340    -1.3890    -0.6690 p5         1 P0S       1.570800
     12 P03         -2.6630    -0.7450     0.6050 p5         1 P0S       1.570800
     13 P04          2.6540     0.7400     0.6450 p5         1 P0S       1.570800
     14 P05         -0.6950    -2.5300     0.0260 p5         1 P0S       1.570800
     15 P06          0.6920     2.5340     0.0720 p5         1 P0S       1.570800
     16 O04          2.3410    -2.6380    -0.2430 o          1 P0S      -0.928000
     17 O05         -2.3410     2.6460    -0.2280 o          1 P0S      -0.928000
     18 O06          2.2320    -0.8740    -1.9420 o          1 P0S      -0.928000
     19 O09         -2.8850    -1.1310     2.0340 o          1 P0S      -0.928000
     20 O10          3.9860     0.2850     0.1370 o          1 P0S      -0.928000
     21 O11         -3.9900    -0.2820     0.0900 o          1 P0S      -0.928000
     22 O17         -0.2980    -2.5000     1.4670 o          1 P0S      -0.928000
     23 O18          0.2790     2.4820     1.5080 o          1 P0S      -0.928000
     24 O03         -2.2130     0.9080    -1.9530 o          1 P0S      -0.928000
@<TRIPOS>BOND
     1     1    13 1   
     2     2    14 1   
     3     3    15 1   
     4     4    10 1   
     5     4    15 1   
     6     5    10 1   
     7     5    12 1   
     8     6    11 1   
     9     6    13 1   
    10     7    12 1   
    11     7    14 1   
    12     8    13 1   
    13     8    15 1   
    14     9    11 1   
    15     9    14 1   
    16    10    17 1   
    17    10    24 1   
    18    11    16 1   
    19    11    18 1   
    20    12    19 1   
    21    12    21 1   
    22    13    20 1   
    23    14    22 1   
    24    15    23 1   
@<TRIPOS>SUBSTRUCTURE
     1 P0S         1 TEMP              0 ****  ****    0 ROOT
