@<TRIPOS>MOLECULE
P0T
   53    54     1     0     0
SMALL
No Charge or Current Charge


@<TRIPOS>ATOM
      1 C10         -2.0080     2.4190    -0.2210 c2         1 P0T      -0.126400
      2 C11          0.1260     0.3270     1.5930 ca         1 P0T       0.187600
      3 C12         -0.1430    -1.1980    -0.2700 ca         1 P0T       0.187600
      4 C14         -2.7890     3.3110     0.7340 c3         1 P0T      -0.052900
      5 C03         -2.5880     1.0260    -0.5170 c6         1 P0T      -0.023500
      6 C04         -2.2490     0.0030     0.6150 c6         1 P0T       0.036800
      7 C05         -4.1120     1.0490    -0.7990 c6         1 P0T      -0.068400
      8 C06         -4.6110    -0.3440    -1.2420 c6         1 P0T      -0.047200
      9 C07         -3.0800    -1.2770     0.5170 c2         1 P0T      -0.253200
     10 C08         -0.7280    -0.3020     0.6560 ca         1 P0T      -0.256300
     11 C09         -4.1260    -1.4500    -0.3110 c2         1 P0T      -0.105400
     12 C15          2.0630    -0.8580     0.7040 ca         1 P0T      -0.006300
     13 C16          1.4990     0.0430     1.6200 ca         1 P0T      -0.185500
     14 C17          1.2310    -1.4710    -0.2450 ca         1 P0T      -0.185500
     15 C18          3.5570    -1.1510     0.7270 c3         1 P0T      -0.033100
     16 C19         -0.8520     2.8140    -0.7790 c2         1 P0T      -0.297000
     17 C20          4.3510    -0.1810    -0.1740 c3         1 P0T      -0.073400
     18 C21          5.8710    -0.4540    -0.1700 c3         1 P0T      -0.076400
     19 C22          6.6620     0.5180    -1.0730 c3         1 P0T      -0.074400
     20 C23          8.1790     0.2460    -1.0690 c3         1 P0T      -0.089100
     21 O02         -0.9090    -1.8170    -1.2070 oh         1 P0T      -0.545600
     22 H1          -4.8690    -3.1560    -1.4210 hc         1 P0T       0.044700
     23 H2          -4.5000    -3.5130     0.2720 hc         1 P0T       0.044700
     24 H3          -5.9560    -2.5970    -0.1380 hc         1 P0T       0.044700
     25 H4          -3.7480     3.6180     0.3000 hc         1 P0T       0.036700
     26 H5          -2.9980     2.8060     1.6830 hc         1 P0T       0.036700
     27 H6          -2.2360     4.2290     0.9690 hc         1 P0T       0.036700
     28 H7          -2.1110     0.6640    -1.4380 hc         1 P0T       0.061700
     29 H8          -2.5600     0.4490     1.5680 hc         1 P0T       0.048700
     30 H9          -4.6600     1.3510     0.1050 hc         1 P0T       0.046200
     31 H10         -4.3450     1.7900    -1.5750 hc         1 P0T       0.046200
     32 H11         -5.7100    -0.3320    -1.2680 hc         1 P0T       0.051700
     33 H12         -4.2790    -0.5580    -2.2680 hc         1 P0T       0.051700
     34 H13         -2.7690    -2.0850     1.1830 ha         1 P0T       0.182000
     35 H16          2.1330     0.5400     2.3490 ha         1 P0T       0.129000
     36 H17          1.6520    -2.1630    -0.9690 ha         1 P0T       0.129000
     37 H18          3.9380    -1.0830     1.7530 hc         1 P0T       0.047700
     38 H19          3.7430    -2.1810     0.3990 hc         1 P0T       0.047700
     39 H20         -0.4220     3.7960    -0.5780 ha         1 P0T       0.167000
     40 H21         -0.2880     2.1690    -1.4540 ha         1 P0T       0.167000
     41 H22          3.9720    -0.2560    -1.2010 hc         1 P0T       0.043700
     42 H23          4.1680     0.8480     0.1590 hc         1 P0T       0.043700
     43 H24          6.2480    -0.3790     0.8570 hc         1 P0T       0.036700
     44 H25          6.0530    -1.4840    -0.5040 hc         1 P0T       0.036700
     45 H26          6.2890     0.4440    -2.1020 hc         1 P0T       0.037700
     46 H27          6.4840     1.5490    -0.7410 hc         1 P0T       0.037700
     47 H28          8.6960     0.9590    -1.7220 hc         1 P0T       0.031367
     48 H29          8.5890     0.3470    -0.0570 hc         1 P0T       0.031367
     49 H30          8.3920    -0.7680    -1.4310 hc         1 P0T       0.031367
     50 H31         -1.2370     1.5110     2.1550 ho         1 P0T       0.472000
     51 H32         -1.8400    -1.6140    -0.9680 ho         1 P0T       0.472000
     52 O01         -0.3540     1.2420     2.4770 oh         1 P0T      -0.545600
     53 C13         -4.9030    -2.7480    -0.4040 c3         1 P0T      -0.058900
@<TRIPOS>BOND
     1     1     4 1   
     2     1     5 1   
     3     1    16 2   
     4     2    10 ar  
     5     2    13 ar  
     6     2    52 1   
     7     3    10 ar  
     8     3    14 ar  
     9     3    21 1   
    10     4    25 1   
    11     4    26 1   
    12     4    27 1   
    13     5     6 1   
    14     5     7 1   
    15     5    28 1   
    16     6     9 1   
    17     6    10 1   
    18     6    29 1   
    19     7     8 1   
    20     7    30 1   
    21     7    31 1   
    22     8    11 1   
    23     8    32 1   
    24     8    33 1   
    25     9    11 2   
    26     9    34 1   
    27    11    53 1   
    28    12    13 ar  
    29    12    14 ar  
    30    12    15 1   
    31    13    35 1   
    32    14    36 1   
    33    15    17 1   
    34    15    37 1   
    35    15    38 1   
    36    16    39 1   
    37    16    40 1   
    38    17    18 1   
    39    17    41 1   
    40    17    42 1   
    41    18    19 1   
    42    18    43 1   
    43    18    44 1   
    44    19    20 1   
    45    19    45 1   
    46    19    46 1   
    47    20    47 1   
    48    20    48 1   
    49    20    49 1   
    50    21    51 1   
    51    22    53 1   
    52    23    53 1   
    53    24    53 1   
    54    50    52 1   
@<TRIPOS>SUBSTRUCTURE
     1 P0T         1 TEMP              0 ****  ****    0 ROOT
