@<TRIPOS>MOLECULE
P0T
   53    54     1     0     0
SMALL
abcg2


@<TRIPOS>ATOM
      1 C10         -1.9120     2.3600    -0.2060 c2         1 P0T      -0.126400
      2 C11          0.0510     0.2900     1.7090 ca         1 P0T       0.187600
      3 C12         -0.1070    -1.1570    -0.1840 ca         1 P0T       0.187600
      4 C14         -2.6770     3.2320     0.7470 c3         1 P0T      -0.052900
      5 C03         -2.4940     1.0080    -0.5360 c6         1 P0T      -0.023500
      6 C04         -2.2320    -0.0070     0.6040 c6         1 P0T       0.036800
      7 C05         -3.9900     1.0620    -0.8430 c6         1 P0T      -0.068400
      8 C06         -4.5020    -0.2900    -1.3160 c6         1 P0T      -0.047200
      9 C07         -3.0580    -1.2620     0.4460 c2         1 P0T      -0.253200
     10 C08         -0.7530    -0.3120     0.7340 ca         1 P0T      -0.256300
     11 C09         -4.0690    -1.4110    -0.4150 c2         1 P0T      -0.105400
     12 C15          2.0390    -0.7700     0.8440 ca         1 P0T      -0.006300
     13 C16          1.4250     0.0630     1.7650 ca         1 P0T      -0.185500
     14 C17          1.2620    -1.3860    -0.1280 ca         1 P0T      -0.185500
     15 C18          3.5260    -0.9850     0.8710 c3         1 P0T      -0.033100
     16 C19         -0.7590     2.7560    -0.7390 c2         1 P0T      -0.297000
     17 C20          4.2550    -0.1560    -0.1880 c3         1 P0T      -0.073400
     18 C21          5.7630    -0.3750    -0.1690 c3         1 P0T      -0.076400
     19 C22          6.4990     0.4330    -1.2310 c3         1 P0T      -0.074400
     20 C23          8.0040     0.2010    -1.2140 c3         1 P0T      -0.089100
     21 O02         -0.7720    -1.7780    -1.1840 oh         1 P0T      -0.545600
     22 H1          -4.8250    -3.0580    -1.5580 hc         1 P0T       0.044700
     23 H2          -4.4220    -3.4730     0.1130 hc         1 P0T       0.044700
     24 H3          -5.8800    -2.5430    -0.2580 hc         1 P0T       0.044700
     25 H4          -3.6220     3.5600     0.3110 hc         1 P0T       0.036700
     26 H5          -2.9380     2.7080     1.6700 hc         1 P0T       0.036700
     27 H6          -2.1100     4.1200     1.0200 hc         1 P0T       0.036700
     28 H7          -1.9840     0.6380    -1.4320 hc         1 P0T       0.061700
     29 H8          -2.5980     0.4450     1.5360 hc         1 P0T       0.048700
     30 H9          -4.5440     1.3620     0.0520 hc         1 P0T       0.046200
     31 H10         -4.1870     1.8220    -1.6020 hc         1 P0T       0.046200
     32 H11         -5.5940    -0.2800    -1.3710 hc         1 P0T       0.051700
     33 H12         -4.1620    -0.4960    -2.3380 hc         1 P0T       0.051700
     34 H13         -2.8030    -2.0820     1.1120 ha         1 P0T       0.182000
     35 H16          2.0060     0.5470     2.5410 ha         1 P0T       0.129000
     36 H17          1.7150    -2.0530    -0.8530 ha         1 P0T       0.129000
     37 H18          3.9180    -0.7310     1.8600 hc         1 P0T       0.047700
     38 H19          3.7490    -2.0430     0.7090 hc         1 P0T       0.047700
     39 H20         -0.3170     3.7150    -0.4950 ha         1 P0T       0.167000
     40 H21         -0.2100     2.1300    -1.4310 ha         1 P0T       0.167000
     41 H22          3.8610    -0.4070    -1.1780 hc         1 P0T       0.043700
     42 H23          4.0340     0.9050    -0.0290 hc         1 P0T       0.043700
     43 H24          6.1560    -0.1170     0.8200 hc         1 P0T       0.036700
     44 H25          5.9760    -1.4400    -0.3130 hc         1 P0T       0.036700
     45 H26          6.1020     0.1770    -2.2180 hc         1 P0T       0.037700
     46 H27          6.2900     1.4970    -1.0860 hc         1 P0T       0.037700
     47 H28          8.5080     0.7910    -1.9810 hc         1 P0T       0.031367
     48 H29          8.4370     0.4730    -0.2500 hc         1 P0T       0.031367
     49 H30          8.2430    -0.8480    -1.3970 hc         1 P0T       0.031367
     50 H31         -1.3930     1.1610     2.6390 ho         1 P0T       0.472000
     51 H32         -1.7270    -1.7850    -1.0090 ho         1 P0T       0.472000
     52 O01         -0.4320     1.1280     2.6530 oh         1 P0T      -0.545600
     53 C13         -4.8320    -2.6930    -0.5280 c3         1 P0T      -0.058900
@<TRIPOS>BOND
     1     1     4 1   
     2     1     5 1   
     3     1    16 2   
     4     2    10 ar  
     5     2    13 ar  
     6     2    52 1   
     7     3    10 ar  
     8     3    14 ar  
     9     3    21 1   
    10     4    25 1   
    11     4    26 1   
    12     4    27 1   
    13     5     6 1   
    14     5     7 1   
    15     5    28 1   
    16     6     9 1   
    17     6    10 1   
    18     6    29 1   
    19     7     8 1   
    20     7    30 1   
    21     7    31 1   
    22     8    11 1   
    23     8    32 1   
    24     8    33 1   
    25     9    11 2   
    26     9    34 1   
    27    11    53 1   
    28    12    13 ar  
    29    12    14 ar  
    30    12    15 1   
    31    13    35 1   
    32    14    36 1   
    33    15    17 1   
    34    15    37 1   
    35    15    38 1   
    36    16    39 1   
    37    16    40 1   
    38    17    18 1   
    39    17    41 1   
    40    17    42 1   
    41    18    19 1   
    42    18    43 1   
    43    18    44 1   
    44    19    20 1   
    45    19    45 1   
    46    19    46 1   
    47    20    47 1   
    48    20    48 1   
    49    20    49 1   
    50    21    51 1   
    51    22    53 1   
    52    23    53 1   
    53    24    53 1   
    54    50    52 1   
@<TRIPOS>SUBSTRUCTURE
     1 P0T         1 TEMP              0 ****  ****    0 ROOT
