@<TRIPOS>MOLECULE
P0U
   35    36     1     0     0
SMALL
No Charge or Current Charge


@<TRIPOS>ATOM
      1 C10         39.6980    17.7390     7.4610 ce         1 P0U      -0.218200
      2 C15         39.1900    14.6120     5.5130 c3         1 P0U       0.090300
      3 C21         42.2730    16.7790     6.4660 c3         1 P0U      -0.080400
      4 C28         43.1570    16.9450     8.8870 ca         1 P0U      -0.153000
      5 C01         40.3040    18.5580    12.5570 c3         1 P0U       0.145900
      6 O05         41.5460    18.0630    12.0240 os         1 P0U      -0.328100
      7 C06         41.7090    17.7480    10.6840 ca         1 P0U       0.115100
      8 C07         40.6590    17.8930     9.7520 ca         1 P0U      -0.160000
      9 C09         40.8470    17.5590     8.3990 ca         1 P0U      -0.039800
     10 C12         39.3620    16.9430     6.4160 c2         1 P0U      -0.059400
     11 N14         40.0020    15.7500     5.9960 n          1 P0U      -0.333000
     12 C19         41.3960    15.5480     6.1550 c          1 P0U       0.564000
     13 O20         41.8750    14.4190     6.1140 o          1 P0U      -0.546000
     14 C23         43.7340    16.6240     5.9660 c3         1 P0U      -0.075100
     15 C27         42.1060    17.0980     7.9550 ca         1 P0U      -0.070300
     16 C30         42.9650    17.2670    10.2490 ca         1 P0U       0.114100
     17 O31         43.9800    17.1290    11.1840 os         1 P0U      -0.329100
     18 C32         45.2930    16.6500    10.8410 c3         1 P0U       0.145900
     19 H1          39.0630    18.5960     7.6930 ha         1 P0U       0.186000
     20 H2          38.1520    14.9260     5.3440 h1         1 P0U       0.047033
     21 H3          39.6030    14.2330     4.5690 h1         1 P0U       0.047033
     22 H4          39.1990    13.8070     6.2600 h1         1 P0U       0.047033
     23 H5          41.8390    17.6330     5.9330 hc         1 P0U       0.072700
     24 H6          44.1210    16.5780     8.5530 ha         1 P0U       0.125000
     25 H7          40.3990    18.7400    13.6340 h1         1 P0U       0.041033
     26 H8          40.0220    19.5030    12.0760 h1         1 P0U       0.041033
     27 H9          39.4970    17.8290    12.4060 h1         1 P0U       0.041033
     28 H10         39.6850    18.2550    10.0630 ha         1 P0U       0.119000
     29 H11         38.4700    17.1670     5.8260 h4         1 P0U       0.186000
     30 H12         44.3220    17.5180     6.2040 hc         1 P0U       0.045367
     31 H13         44.2250    15.7530     6.4180 hc         1 P0U       0.045367
     32 H14         43.7510    16.4900     4.8780 hc         1 P0U       0.045367
     33 H15         45.9310    16.6210    11.7330 h1         1 P0U       0.042033
     34 H16         45.2420    15.6340    10.4280 h1         1 P0U       0.042033
     35 H17         45.7690    17.3090    10.1040 h1         1 P0U       0.042033
@<TRIPOS>BOND
     1     1     9 1   
     2     1    10 2   
     3     1    19 1   
     4     2    11 1   
     5     2    20 1   
     6     2    21 1   
     7     2    22 1   
     8     3    12 1   
     9     3    14 1   
    10     3    15 1   
    11     3    23 1   
    12     4    15 ar  
    13     4    16 ar  
    14     4    24 1   
    15     5     6 1   
    16     5    25 1   
    17     5    26 1   
    18     5    27 1   
    19     6     7 1   
    20     7     8 ar  
    21     7    16 ar  
    22     8     9 ar  
    23     8    28 1   
    24     9    15 ar  
    25    10    11 1   
    26    10    29 1   
    27    11    12 1   
    28    12    13 2   
    29    14    30 1   
    30    14    31 1   
    31    14    32 1   
    32    16    17 1   
    33    17    18 1   
    34    18    33 1   
    35    18    34 1   
    36    18    35 1   
@<TRIPOS>SUBSTRUCTURE
     1 P0U         1 TEMP              0 ****  ****    0 ROOT
