@<TRIPOS>MOLECULE
P0U
   35    36     1     0     0
SMALL
abcg2


@<TRIPOS>ATOM
      1 C10         39.6770    17.6590     7.5300 ce         1 P0U      -0.218200
      2 C15         39.3000    14.6230     5.5150 c3         1 P0U       0.090300
      3 C21         42.2470    16.8160     6.4950 c3         1 P0U      -0.080400
      4 C28         43.0970    16.9030     8.8980 ca         1 P0U      -0.153000
      5 C01         40.4090    18.6350    12.4850 c3         1 P0U       0.145900
      6 O05         41.6260    18.0720    12.0010 os         1 P0U      -0.328100
      7 C06         41.6980    17.7550    10.6800 ca         1 P0U       0.115100
      8 C07         40.6680    17.9120     9.7730 ca         1 P0U      -0.160000
      9 C09         40.8200    17.5480     8.4210 ca         1 P0U      -0.039800
     10 C12         39.3790    16.8590     6.4920 c2         1 P0U      -0.059400
     11 N14         40.0880    15.7390     6.0440 n          1 P0U      -0.333000
     12 C19         41.4460    15.5740     6.1260 c          1 P0U       0.564000
     13 O20         41.9680    14.4880     5.8850 o          1 P0U      -0.546000
     14 C23         43.6930    16.6930     6.0330 c3         1 P0U      -0.075100
     15 C27         42.0600    17.0770     7.9770 ca         1 P0U      -0.070300
     16 C30         42.9330    17.2250    10.2360 ca         1 P0U       0.114100
     17 O31         43.8980    17.0940    11.1840 os         1 P0U      -0.329100
     18 C32         45.1670    16.5810    10.7820 c3         1 P0U       0.145900
     19 H1          38.9450    18.4240     7.7620 ha         1 P0U       0.186000
     20 H2          38.3350    15.0050     5.1890 h1         1 P0U       0.047033
     21 H3          39.8200    14.1700     4.6750 h1         1 P0U       0.047033
     22 H4          39.1390    13.8630     6.2820 h1         1 P0U       0.047033
     23 H5          41.7790    17.6540     5.9690 hc         1 P0U       0.072700
     24 H6          44.0530    16.5380     8.5580 ha         1 P0U       0.125000
     25 H7          40.5710    18.8290    13.5420 h1         1 P0U       0.041033
     26 H8          40.1760    19.5700    11.9700 h1         1 P0U       0.041033
     27 H9          39.5770    17.9360    12.3630 h1         1 P0U       0.041033
     28 H10         39.7140    18.3000    10.0980 ha         1 P0U       0.119000
     29 H11         38.4530    17.0170     5.9550 h4         1 P0U       0.186000
     30 H12         44.2490    17.5920     6.3020 hc         1 P0U       0.045367
     31 H13         44.1900    15.8310     6.4760 hc         1 P0U       0.045367
     32 H14         43.7300    16.5770     4.9500 hc         1 P0U       0.045367
     33 H15         45.7740    16.5530    11.6820 h1         1 P0U       0.042033
     34 H16         45.0710    15.5720    10.3710 h1         1 P0U       0.042033
     35 H17         45.6360    17.2320    10.0400 h1         1 P0U       0.042033
@<TRIPOS>BOND
     1     1     9 1   
     2     1    10 2   
     3     1    19 1   
     4     2    11 1   
     5     2    20 1   
     6     2    21 1   
     7     2    22 1   
     8     3    12 1   
     9     3    14 1   
    10     3    15 1   
    11     3    23 1   
    12     4    15 ar  
    13     4    16 ar  
    14     4    24 1   
    15     5     6 1   
    16     5    25 1   
    17     5    26 1   
    18     5    27 1   
    19     6     7 1   
    20     7     8 ar  
    21     7    16 ar  
    22     8     9 ar  
    23     8    28 1   
    24     9    15 ar  
    25    10    11 1   
    26    10    29 1   
    27    11    12 1   
    28    12    13 2   
    29    14    30 1   
    30    14    31 1   
    31    14    32 1   
    32    16    17 1   
    33    17    18 1   
    34    18    33 1   
    35    18    34 1   
    36    18    35 1   
@<TRIPOS>SUBSTRUCTURE
     1 P0U         1 TEMP              0 ****  ****    0 ROOT
