@<TRIPOS>MOLECULE
P0V
   65    68     1     0     0
SMALL
abcg2


@<TRIPOS>ATOM
      1 C28         -5.8530    -1.8160    -0.5990 ca         1 P0V      -0.042000
      2 C29         -6.8150    -2.6420    -0.0300 ca         1 P0V      -0.158600
      3 C30         -6.5260    -3.3130     1.1570 ca         1 P0V      -0.093000
      4 C27         -4.5980    -1.6740    -0.0100 ca         1 P0V       0.049000
      5 C26         -3.6120    -0.8350    -0.6080 cg         1 P0V      -0.148000
      6 C14          4.0680     1.8830    -1.0870 c5         1 P0V       0.078300
      7 C15          0.4020     1.6640    -1.6530 c3         1 P0V       0.178800
      8 C13          2.8200     2.4950    -1.7250 c5         1 P0V       0.105300
      9 C12          1.7380     1.7560    -0.9500 c5         1 P0V       0.175300
     10 C6           6.2500    -2.9100     1.3830 ca         1 P0V       0.448900
     11 C4           6.0690    -3.1740    -0.8960 ca         1 P0V       0.175900
     12 N3           5.3290    -2.1080    -1.1450 nb         1 P0V      -0.210000
     13 C2           5.0520    -1.4310    -0.0330 ca         1 P0V       0.140500
     14 C1           5.4600    -1.7530     1.2510 ca         1 P0V      -0.098600
     15 N9           4.3150    -0.2890     0.1010 na         1 P0V      -0.283300
     16 C8           4.3080     0.0060     1.4380 cc         1 P0V       0.418700
     17 C10          3.6390     0.4200    -0.9550 c5         1 P0V       0.313300
     18 C18         -0.8940     1.4640     0.4210 c3         1 P0V       0.148800
     19 C20         -1.7380     3.3740     1.8950 c3         1 P0V       0.022500
     20 C24         -1.7730     0.7320    -1.7280 c3         1 P0V       0.254900
     21 C25         -2.7720    -0.1310    -1.1070 c1         1 P0V      -0.070100
     22 C31         -5.2820    -3.1660     1.7540 ca         1 P0V      -0.124000
     23 C32         -4.3180    -2.3590     1.1770 ca         1 P0V      -0.068000
     24 C33         -8.1430    -2.7420    -0.7180 c          1 P0V       0.617700
     25 C36         -2.4870     4.7210     1.8000 c          1 P0V       0.724000
     26 N16         -0.5950     0.9230    -0.8990 n3         1 P0V      -0.715600
     27 N21         -0.5640     3.5020     2.7450 n8         1 P0V      -0.986200
     28 N34         -8.8780    -3.8260    -0.4350 nt         1 P0V      -0.608000
     29 N5           6.5350    -3.6030     0.2740 nb         1 P0V      -0.311000
     30 N7           4.9820    -0.8410     2.1570 nd         1 P0V      -0.561100
     31 O11          2.2620     0.4440    -0.7070 os         1 P0V      -0.427000
     32 O22          2.7500     2.1720    -3.0890 oh         1 P0V      -0.703000
     33 O23          5.2320     1.9710    -1.8510 oh         1 P0V      -0.698000
     34 O35         -8.5150    -1.8700    -1.4910 o          1 P0V      -0.603100
     35 O37         -3.6940     4.6580     1.4880 o          1 P0V      -0.729000
     36 O38         -1.8230     5.7580     1.9950 o          1 P0V      -0.729000
     37 H281        -6.0760    -1.2840    -1.5140 ha         1 P0V       0.142000
     38 H301        -7.2640    -3.9380     1.6420 ha         1 P0V       0.102000
     39 H192        -0.7430     3.5860    -0.0050 hc         1 P0V       0.044200
     40 H191        -2.3690     2.9350    -0.1200 hc         1 P0V       0.044200
     41 H141         4.2030     2.3190    -0.0890 h1         1 P0V       0.053700
     42 H152         0.0780     2.6900    -1.8930 h1         1 P0V       0.051200
     43 H151         0.5410     1.1550    -2.6100 h1         1 P0V       0.051200
     44 H131         2.7530     3.5760    -1.5550 h1         1 P0V       0.063700
     45 H121         1.6220     2.2740     0.0110 h1         1 P0V       0.063700
     46 H41          6.3340    -3.7820    -1.7540 h5         1 P0V       0.041100
     47 H81          3.7800     0.8630     1.8290 h5         1 P0V       0.071800
     48 H101         3.8700    -0.1250    -1.8770 h2         1 P0V       0.118700
     49 H182         0.0130     1.3910     1.0260 h1         1 P0V       0.048200
     50 H181        -1.6110     0.7910     0.9000 h1         1 P0V       0.048200
     51 H201        -2.4130     2.6460     2.3600 h1         1 P0V       0.049700
     52 H242        -1.4580     0.2680    -2.6680 h1         1 P0V       0.050200
     53 H241        -2.2590     1.6780    -2.0150 h1         1 P0V       0.050200
     54 H311        -5.0660    -3.6830     2.6800 ha         1 P0V       0.112000
     55 H321        -3.3460    -2.2530     1.6410 ha         1 P0V       0.128000
     56 H172         7.2540    -4.1840     2.6130 hn         1 P0V       0.503500
     57 H171         6.5060    -2.8470     3.4090 hn         1 P0V       0.503500
     58 H211         0.0110     2.6710     2.6930 hn         1 P0V       0.371500
     59 H212        -0.0020     4.2720     2.4040 hn         1 P0V       0.371500
     60 H341        -8.5200    -4.6060     0.0880 hn         1 P0V       0.308500
     61 H342        -9.7690    -3.9520    -0.8850 hn         1 P0V       0.308500
     62 H221         3.6010     2.3850    -3.4880 ho         1 P0V       0.514000
     63 H231         5.6340     2.8330    -1.7030 ho         1 P0V       0.511000
     64 C19         -1.4460     2.8890     0.4640 c3         1 P0V      -0.136400
     65 N17          6.7180    -3.3350     2.5570 nv         1 P0V      -1.070900
@<TRIPOS>BOND
     1     1     2 ar  
     2     1     4 ar  
     3     1    37 1   
     4     2     3 ar  
     5     2    24 1   
     6     3    22 ar  
     7     3    38 1   
     8     4     5 1   
     9     4    23 ar  
    10     5    21 3   
    11     6     8 1   
    12     6    17 1   
    13     6    33 1   
    14     6    41 1   
    15     7     9 1   
    16     7    26 1   
    17     7    42 1   
    18     7    43 1   
    19     8     9 1   
    20     8    32 1   
    21     8    44 1   
    22     9    31 1   
    23     9    45 1   
    24    10    14 ar  
    25    10    29 ar  
    26    10    65 1   
    27    11    12 ar  
    28    11    29 ar  
    29    11    46 1   
    30    12    13 ar  
    31    13    14 ar  
    32    13    15 1   
    33    14    30 1   
    34    15    16 1   
    35    15    17 1   
    36    16    30 2   
    37    16    47 1   
    38    17    31 1   
    39    17    48 1   
    40    18    26 1   
    41    18    49 1   
    42    18    50 1   
    43    18    64 1   
    44    19    25 1   
    45    19    27 1   
    46    19    51 1   
    47    19    64 1   
    48    20    21 1   
    49    20    26 1   
    50    20    52 1   
    51    20    53 1   
    52    22    23 ar  
    53    22    54 1   
    54    23    55 1   
    55    24    28 1   
    56    24    34 2   
    57    25    35 1   
    58    25    36 1   
    59    27    58 1   
    60    27    59 1   
    61    28    60 1   
    62    28    61 1   
    63    32    62 1   
    64    33    63 1   
    65    39    64 1   
    66    40    64 1   
    67    56    65 1   
    68    57    65 1   
@<TRIPOS>SUBSTRUCTURE
     1 P0V         1 TEMP              0 ****  ****    0 ROOT
