@<TRIPOS>MOLECULE
P0V
   65    68     1     0     0
SMALL
No Charge or Current Charge


@<TRIPOS>ATOM
      1 C28         -5.4370    -2.3500    -0.8250 ca         1 P0V      -0.042000
      2 C29         -6.3800    -3.2310    -0.2460 ca         1 P0V      -0.158600
      3 C30         -6.4780    -3.2840     1.1670 ca         1 P0V      -0.093000
      4 C27         -4.6140    -1.5420    -0.0190 ca         1 P0V       0.049000
      5 C26         -3.6630    -0.6530    -0.6220 cg         1 P0V      -0.148000
      6 C14          4.2100     2.1640    -1.1060 c5         1 P0V       0.078300
      7 C15          0.4440     1.9140    -1.6470 c3         1 P0V       0.178800
      8 C13          2.9520     2.7250    -1.8230 c5         1 P0V       0.105300
      9 C12          1.8660     1.9510    -1.0050 c5         1 P0V       0.175300
     10 C6           5.4830    -3.3170     1.2380 ca         1 P0V       0.448900
     11 C4           4.1790    -3.7890    -0.5820 ca         1 P0V       0.175900
     12 N3           3.9470    -2.4930    -0.8990 nb         1 P0V      -0.210000
     13 C2           4.5190    -1.5820    -0.0870 ca         1 P0V       0.140500
     14 C1           5.2930    -1.9420     0.9870 ca         1 P0V      -0.098600
     15 N9           4.5060    -0.2160    -0.0890 na         1 P0V      -0.283300
     16 C8           5.2830     0.2110     0.9940 cc         1 P0V       0.418700
     17 C10          3.8290     0.6410    -1.0640 c5         1 P0V       0.313300
     18 C18         -0.8270     1.6670     0.5170 c3         1 P0V       0.148800
     19 C20         -1.6140     3.5620     2.1210 c3         1 P0V       0.022500
     20 C24         -1.8760     1.0480    -1.6850 c3         1 P0V       0.254900
     21 C25         -2.8540     0.1030    -1.1220 c1         1 P0V      -0.070100
     22 C31         -5.6550    -2.4760     1.9700 ca         1 P0V      -0.124000
     23 C32         -4.7240    -1.6060     1.3800 ca         1 P0V      -0.068000
     24 C33         -7.2480    -4.0850    -1.1440 c          1 P0V       0.617700
     25 C36         -2.4770     4.8950     2.1540 c          1 P0V       0.724000
     26 N16         -0.6250     1.1920    -0.8850 n3         1 P0V      -0.715600
     27 N21         -0.3460     3.5670     2.9360 n8         1 P0V      -0.986200
     28 N34         -8.1390    -4.9190    -0.5670 nt         1 P0V      -0.608000
     29 N5           4.9220    -4.2500     0.4540 nb         1 P0V      -0.311000
     30 N7           5.7830    -0.8320     1.6850 nd         1 P0V      -0.561100
     31 O11          2.4030     0.6120    -0.8210 os         1 P0V      -0.427000
     32 O22          2.9740     2.4130    -3.2260 oh         1 P0V      -0.703000
     33 O23          5.4220     2.4510    -1.8320 oh         1 P0V      -0.698000
     34 O35         -7.1740    -4.0480    -2.3610 o          1 P0V      -0.603100
     35 O37         -3.6120     4.8410     2.6120 o          1 P0V      -0.729000
     36 O38         -1.9550     5.9420     1.7870 o          1 P0V      -0.729000
     37 H281        -5.3410    -2.2900    -1.9070 ha         1 P0V       0.142000
     38 H301        -7.1880    -3.9460     1.6560 ha         1 P0V       0.102000
     39 H192        -0.5720     3.8200     0.2280 hc         1 P0V       0.044200
     40 H191        -2.2310     3.2590     0.0790 hc         1 P0V       0.044200
     41 H141         4.2700     2.5730    -0.0870 h1         1 P0V       0.053700
     42 H152         0.1330     2.9520    -1.8290 h1         1 P0V       0.051200
     43 H151         0.5530     1.4490    -2.6360 h1         1 P0V       0.051200
     44 H131         2.8570     3.8100    -1.6720 h1         1 P0V       0.063700
     45 H121         1.7820     2.4160    -0.0140 h1         1 P0V       0.063700
     46 H41          3.7220    -4.5380    -1.2260 h5         1 P0V       0.041100
     47 H81          5.4460     1.2570     1.2250 h5         1 P0V       0.071800
     48 H101         4.0300     0.1960    -2.0470 h2         1 P0V       0.118700
     49 H182         0.1070     1.5490     1.0800 h1         1 P0V       0.048200
     50 H181        -1.5540     1.0200     1.0270 h1         1 P0V       0.048200
     51 H201        -2.2600     2.7830     2.5500 h1         1 P0V       0.049700
     52 H242        -1.6290     0.6870    -2.6920 h1         1 P0V       0.050200
     53 H241        -2.3670     2.0210    -1.8140 h1         1 P0V       0.050200
     54 H311        -5.7390    -2.5250     3.0540 ha         1 P0V       0.112000
     55 H321        -4.0910    -0.9840     2.0090 ha         1 P0V       0.128000
     56 H172         6.0840    -4.7390     2.5760 hn         1 P0V       0.503500
     57 H171         6.4740    -3.1070     3.0020 hn         1 P0V       0.503500
     58 H211         0.1960     2.7210     2.7350 hn         1 P0V       0.371500
     59 H212         0.2520     4.3350     2.6100 hn         1 P0V       0.371500
     60 H341        -8.2150    -4.9630     0.4380 hn         1 P0V       0.308500
     61 H342        -8.7260    -5.4940    -1.1520 hn         1 P0V       0.308500
     62 H221         3.9270     2.4590    -3.4830 ho         1 P0V       0.514000
     63 H231         5.7540     3.3310    -1.5300 ho         1 P0V       0.511000
     64 C19         -1.3110     3.1340     0.6600 c3         1 P0V      -0.136400
     65 N17          6.2270    -3.7780     2.2780 nv         1 P0V      -1.070900
@<TRIPOS>BOND
     1     1     2 ar  
     2     1     4 ar  
     3     1    37 1   
     4     2     3 ar  
     5     2    24 1   
     6     3    22 ar  
     7     3    38 1   
     8     4     5 1   
     9     4    23 ar  
    10     5    21 3   
    11     6     8 1   
    12     6    17 1   
    13     6    33 1   
    14     6    41 1   
    15     7     9 1   
    16     7    26 1   
    17     7    42 1   
    18     7    43 1   
    19     8     9 1   
    20     8    32 1   
    21     8    44 1   
    22     9    31 1   
    23     9    45 1   
    24    10    14 ar  
    25    10    29 ar  
    26    10    65 1   
    27    11    12 ar  
    28    11    29 ar  
    29    11    46 1   
    30    12    13 ar  
    31    13    14 ar  
    32    13    15 1   
    33    14    30 1   
    34    15    16 1   
    35    15    17 1   
    36    16    30 2   
    37    16    47 1   
    38    17    31 1   
    39    17    48 1   
    40    18    26 1   
    41    18    49 1   
    42    18    50 1   
    43    18    64 1   
    44    19    25 1   
    45    19    27 1   
    46    19    51 1   
    47    19    64 1   
    48    20    21 1   
    49    20    26 1   
    50    20    52 1   
    51    20    53 1   
    52    22    23 ar  
    53    22    54 1   
    54    23    55 1   
    55    24    28 1   
    56    24    34 2   
    57    25    35 1   
    58    25    36 1   
    59    27    58 1   
    60    27    59 1   
    61    28    60 1   
    62    28    61 1   
    63    32    62 1   
    64    33    63 1   
    65    39    64 1   
    66    40    64 1   
    67    56    65 1   
    68    57    65 1   
@<TRIPOS>SUBSTRUCTURE
     1 P0V         1 TEMP              0 ****  ****    0 ROOT
