@<TRIPOS>MOLECULE
P0W
   40    42     1     0     0
SMALL
No Charge or Current Charge


@<TRIPOS>ATOM
      1 CAA         -0.3140    -4.1850     5.5010 c3         1 P0W       0.153100
      2 CAD          1.3130     5.4120     7.1100 ca         1 P0W      -0.108000
      3 CAE         -0.0720     5.2770     6.9120 ca         1 P0W      -0.094000
      4 CAF          2.1510     4.2920     6.9890 ca         1 P0W      -0.094000
      5 CAG         -0.6180     4.0230     6.5890 ca         1 P0W      -0.107500
      6 CAH          1.6060     3.0370     6.6660 ca         1 P0W      -0.107500
      7 CAI         -1.4090     0.2350     4.9360 cc         1 P0W      -0.212000
      8 CAJ         -1.1130     1.5640     4.9960 cd         1 P0W      -0.159000
      9 CAK          2.8530    -0.3320     4.8730 cc         1 P0W      -0.396200
     10 CAL         -0.8210    -1.8930     6.2490 c3         1 P0W       0.139500
     11 CAM          1.4450    -2.4580     5.3380 c3         1 P0W       0.188000
     12 CAQ         -0.7520    -0.3940     6.0160 cc         1 P0W       0.231300
     13 CAR          1.8550    -1.2200     4.5590 cd         1 P0W       0.121400
     14 CAS          0.2190     2.8940     6.4570 ca         1 P0W       0.013800
     15 CAT          3.1240     0.8340     4.0330 c          1 P0W       0.593200
     16 CAU          1.3080     0.0900     2.5820 c          1 P0W       0.616000
     17 NAN         -0.0700     0.4430     6.7800 nd         1 P0W      -0.515800
     18 NAO          1.1400    -0.9730     3.4120 ns         1 P0W      -0.500600
     19 NAP          2.3070     0.9330     2.9490 ns         1 P0W      -0.472500
     20 NAV         -0.0240    -2.7450     5.3080 n3         1 P0W      -0.739600
     21 NAW         -0.3130     1.6420     6.1350 na         1 P0W       0.239000
     22 OAB          3.9940     1.6540     4.2650 o          1 P0W      -0.537000
     23 OAC          0.6230     0.2660     1.5940 o          1 P0W      -0.564000
     24 H1          -1.3900    -4.3820     5.4040 h1         1 P0W       0.038700
     25 H2           0.2060    -4.7920     4.7480 h1         1 P0W       0.038700
     26 H3           0.0080    -4.5200     6.4960 h1         1 P0W       0.038700
     27 H5          -0.7220     6.1440     7.0110 ha         1 P0W       0.118500
     28 H6           3.2230     4.3940     7.1450 ha         1 P0W       0.118500
     29 H7          -1.6920     3.9280     6.4440 ha         1 P0W       0.127500
     30 H8           2.2610     2.1730     6.5780 ha         1 P0W       0.127500
     31 H9          -2.0130    -0.2730     4.1910 ha         1 P0W       0.153000
     32 H10         -1.3790     2.4050     4.3660 h4         1 P0W       0.162000
     33 H11          3.4740    -0.4410     5.7530 ha         1 P0W       0.219000
     34 H13         -1.8800    -2.1760     6.1880 h1         1 P0W       0.053700
     35 H14         -0.5080    -2.0930     7.2830 h1         1 P0W       0.053700
     36 H15          2.0010    -3.2980     4.8980 h1         1 P0W       0.064200
     37 H16          1.7960    -2.3610     6.3750 h1         1 P0W       0.064200
     38 H17          2.4590     1.7270     2.3490 hn         1 P0W       0.338500
     39 H12          0.3690    -1.5870     3.1780 hn         1 P0W       0.477000
     40 H4           1.7340     6.3830     7.3610 ha         1 P0W       0.119000
@<TRIPOS>BOND
     1     1    20 1   
     2     1    24 1   
     3     1    25 1   
     4     1    26 1   
     5     2     3 ar  
     6     2     4 ar  
     7     2    40 1   
     8     3     5 ar  
     9     3    27 1   
    10     4     6 ar  
    11     4    28 1   
    12     5    14 ar  
    13     5    29 1   
    14     6    14 ar  
    15     6    30 1   
    16     7     8 2   
    17     7    12 1   
    18     7    31 1   
    19     8    21 1   
    20     8    32 1   
    21     9    13 2   
    22     9    15 1   
    23     9    33 1   
    24    10    12 1   
    25    10    20 1   
    26    10    34 1   
    27    10    35 1   
    28    11    13 1   
    29    11    20 1   
    30    11    36 1   
    31    11    37 1   
    32    12    17 2   
    33    13    18 1   
    34    14    21 1   
    35    15    19 1   
    36    15    22 2   
    37    16    18 1   
    38    16    19 1   
    39    16    23 2   
    40    17    21 1   
    41    18    39 1   
    42    19    38 1   
@<TRIPOS>SUBSTRUCTURE
     1 P0W         1 TEMP              0 ****  ****    0 ROOT
