@<TRIPOS>MOLECULE
P0W
   40    42     1     0     0
SMALL
bcc


@<TRIPOS>ATOM
      1 CAA          0.0520    -4.0050     5.7570 c3         1 P0W       0.153100
      2 CAD          1.5070     5.0900     7.5950 ca         1 P0W      -0.126000
      3 CAE          0.3820     5.2060     6.7900 ca         1 P0W      -0.112000
      4 CAF          2.0160     3.8290     7.8800 ca         1 P0W      -0.112000
      5 CAG         -0.2340     4.0760     6.2740 ca         1 P0W      -0.125500
      6 CAH          1.4180     2.6920     7.3600 ca         1 P0W      -0.125500
      7 CAI         -1.3630     0.2520     4.7250 cc         1 P0W      -0.295300
      8 CAJ         -1.0050     1.5670     4.8530 cd         1 P0W      -0.126300
      9 CAK          2.4460     0.1020     4.6290 cc         1 P0W      -0.346200
     10 CAL         -0.8270    -1.8280     6.2160 c3         1 P0W       0.139500
     11 CAM          1.4590    -2.0670     5.4560 c3         1 P0W       0.188000
     12 CAQ         -0.8240    -0.3780     5.8650 cc         1 P0W       0.296600
     13 CAR          1.6670    -0.9820     4.4370 cd         1 P0W       0.121400
     14 CAS          0.2910     2.8200     6.5540 ca         1 P0W       0.013800
     15 CAT          2.6100     1.0640     3.5720 c          1 P0W       0.735700
     16 CAU          1.1080    -0.3290     2.1890 c          1 P0W       0.825500
     17 NAN         -0.2030     0.4950     6.6330 nd         1 P0W      -0.515800
     18 NAO          1.0540    -1.1980     3.2420 ns         1 P0W      -0.454100
     19 NAP          1.9110     0.7590     2.4100 ns         1 P0W      -0.606500
     20 NAV          0.1120    -2.5990     5.4040 n3         1 P0W      -0.739600
     21 NAW         -0.3130     1.6680     6.0140 na         1 P0W       0.188300
     22 OAB          3.2820     2.0790     3.6310 o          1 P0W      -0.612500
     23 OAC          0.5030    -0.5060     1.1500 o          1 P0W      -0.639500
     24 H1          -0.9650    -4.3740     5.6150 h1         1 P0W       0.038700
     25 H2           0.7090    -4.5820     5.1070 h1         1 P0W       0.038700
     26 H3           0.3390    -4.2030     6.7990 h1         1 P0W       0.038700
     27 H5          -0.0310     6.1820     6.5700 ha         1 P0W       0.136500
     28 H6           2.8930     3.7280     8.5050 ha         1 P0W       0.136500
     29 H7          -1.1250     4.1780     5.6690 ha         1 P0W       0.145500
     30 H8           1.8240     1.7130     7.5700 ha         1 P0W       0.145500
     31 H9          -1.9160    -0.2000     3.9170 ha         1 P0W       0.171000
     32 H10         -1.1760     2.4140     4.2100 h4         1 P0W       0.180000
     33 H11          2.9290     0.2760     5.5790 ha         1 P0W       0.169000
     34 H13         -1.8240    -2.2430     6.0580 h1         1 P0W       0.053700
     35 H14         -0.5980    -1.9290     7.2880 h1         1 P0W       0.053700
     36 H15          2.1590    -2.8700     5.2080 h1         1 P0W       0.064200
     37 H16          1.7470    -1.6940     6.4470 h1         1 P0W       0.064200
     38 H17          1.9840     1.4190     1.6460 hn         1 P0W       0.338500
     39 H12          0.3980    -1.9690     3.1940 hn         1 P0W       0.363500
     40 H4           1.9820     5.9740     7.9990 ha         1 P0W       0.137000
@<TRIPOS>BOND
     1     1    20 1   
     2     1    24 1   
     3     1    25 1   
     4     1    26 1   
     5     2     3 ar  
     6     2     4 ar  
     7     2    40 1   
     8     3     5 ar  
     9     3    27 1   
    10     4     6 ar  
    11     4    28 1   
    12     5    14 ar  
    13     5    29 1   
    14     6    14 ar  
    15     6    30 1   
    16     7     8 2   
    17     7    12 1   
    18     7    31 1   
    19     8    21 1   
    20     8    32 1   
    21     9    13 2   
    22     9    15 1   
    23     9    33 1   
    24    10    12 1   
    25    10    20 1   
    26    10    34 1   
    27    10    35 1   
    28    11    13 1   
    29    11    20 1   
    30    11    36 1   
    31    11    37 1   
    32    12    17 2   
    33    13    18 1   
    34    14    21 1   
    35    15    19 1   
    36    15    22 2   
    37    16    18 1   
    38    16    19 1   
    39    16    23 2   
    40    17    21 1   
    41    18    39 1   
    42    19    38 1   
@<TRIPOS>SUBSTRUCTURE
     1 P0W         1 TEMP              0 ****  ****    0 ROOT
