@<TRIPOS>MOLECULE
P0X
   43    46     1     0     0
SMALL
abcg2


@<TRIPOS>ATOM
      1 N1           6.7890    -0.9190    21.9130 n          1 P0X      -0.410800
      2 C4          10.8900    -0.7130    22.7450 ca         1 P0X      -0.045000
      3 C5          11.6950    -0.7430    21.6120 ca         1 P0X      -0.090000
      4 C6           8.7830    -1.9990    22.7410 c6         1 P0X       0.096000
      5 C7           7.2940    -1.8120    22.9430 c6         1 P0X       0.078000
      6 C8           7.3500     0.4170    21.9820 c6         1 P0X       0.022000
      7 C10          5.9300    -1.3480    20.9670 c          1 P0X       0.612300
      8 C13          5.6030     0.5480    17.6620 c          1 P0X       0.557200
      9 C15          3.0180     2.4340    19.5390 ca         1 P0X      -0.164000
     10 C17          2.8440     1.5930    21.8000 ca         1 P0X      -0.144000
     11 O2           6.0730     0.5660    16.5200 o          1 P0X      -0.543000
     12 C12          6.0270    -0.3670    18.7050 cc         1 P0X      -0.251200
     13 N2           4.6160     1.4310    18.0330 ns         1 P0X      -0.373100
     14 C14          4.0220     1.4950    19.2730 ca         1 P0X       0.105600
     15 C19          4.4430     0.5990    20.2790 ca         1 P0X      -0.125800
     16 C18          3.8340     0.6670    21.5440 ca         1 P0X      -0.051000
     17 C16          2.4390     2.4780    20.7910 ca         1 P0X      -0.052000
     18 C11          5.4810    -0.3380    19.9430 cd         1 P0X      -0.041400
     19 O1           5.4940    -2.4960    20.9130 o          1 P0X      -0.576100
     20 C9           8.8520     0.4460    22.2280 c          1 P0X       0.553000
     21 O            9.4440     1.5160    22.1120 o          1 P0X      -0.540000
     22 N            9.4660    -0.7040    22.5920 n          1 P0X      -0.248400
     23 C           13.0720    -0.7750    21.7770 ca         1 P0X       0.129000
     24 CL          14.0950    -0.8080    20.3560 cl         1 P0X      -0.203000
     25 C3          11.4490    -0.7250    24.0170 ca         1 P0X      -0.103000
     26 C2          12.8310    -0.7630    24.1570 ca         1 P0X      -0.096000
     27 C1          13.6550    -0.7860    23.0370 ca         1 P0X      -0.097000
     28 H1          11.2510    -0.7370    20.6270 ha         1 P0X       0.140000
     29 H2           8.9730    -2.6080    21.8530 h1         1 P0X       0.059700
     30 H3           9.2110    -2.5090    23.6030 h1         1 P0X       0.059700
     31 H4           7.0900    -1.3680    23.9210 h1         1 P0X       0.076200
     32 H5           6.7820    -2.7670    22.8720 h1         1 P0X       0.076200
     33 H6           7.1780     0.9550    21.0540 h1         1 P0X       0.085200
     34 H7           6.8830     0.9870    22.7910 h1         1 P0X       0.085200
     35 H8           2.7080     3.1140    18.7560 ha         1 P0X       0.123000
     36 H9           2.3820     1.6370    22.7770 ha         1 P0X       0.123000
     37 H10          6.8100    -1.0670    18.4480 ha         1 P0X       0.219000
     38 H11          4.3110     2.0790    17.3170 hn         1 P0X       0.332500
     39 H12          4.1470    -0.0170    22.3220 ha         1 P0X       0.122000
     40 H13          1.6630     3.2050    20.9930 ha         1 P0X       0.120000
     41 H14         10.8030    -0.7020    24.8850 ha         1 P0X       0.124000
     42 H15         13.2740    -0.7700    25.1440 ha         1 P0X       0.122000
     43 H16         14.7310    -0.8140    23.1400 ha         1 P0X       0.133000
@<TRIPOS>BOND
     1     1     5 1   
     2     1     6 1   
     3     1     7 1   
     4     2     3 ar  
     5     2    22 1   
     6     2    25 ar  
     7     3    23 ar  
     8     3    28 1   
     9     4     5 1   
    10     4    22 1   
    11     4    29 1   
    12     4    30 1   
    13     5    31 1   
    14     5    32 1   
    15     6    20 1   
    16     6    33 1   
    17     6    34 1   
    18     7    18 1   
    19     7    19 2   
    20     8    11 2   
    21     8    12 1   
    22     8    13 1   
    23     9    14 ar  
    24     9    17 ar  
    25     9    35 1   
    26    10    16 ar  
    27    10    17 ar  
    28    10    36 1   
    29    12    18 2   
    30    12    37 1   
    31    13    14 1   
    32    13    38 1   
    33    14    15 ar  
    34    15    16 ar  
    35    15    18 1   
    36    16    39 1   
    37    17    40 1   
    38    20    21 2   
    39    20    22 1   
    40    23    24 1   
    41    23    27 ar  
    42    25    26 ar  
    43    25    41 1   
    44    26    27 ar  
    45    26    42 1   
    46    27    43 1   
@<TRIPOS>SUBSTRUCTURE
     1 P0X         1 TEMP              0 ****  ****    0 ROOT
