@<TRIPOS>MOLECULE
P0X
   43    46     1     0     0
SMALL
No Charge or Current Charge


@<TRIPOS>ATOM
      1 N1           6.6360    -1.0260    21.8870 n          1 P0X      -0.410800
      2 C4          10.8940    -0.8030    22.7450 ca         1 P0X      -0.045000
      3 C5          11.7390    -0.0440    21.9030 ca         1 P0X      -0.090000
      4 C6           8.7180    -2.0470    22.7790 c6         1 P0X       0.096000
      5 C7           7.1990    -1.8640    22.9660 c6         1 P0X       0.078000
      6 C8           7.2540     0.3370    21.8510 c6         1 P0X       0.022000
      7 C10          5.9350    -1.5940    20.7910 c          1 P0X       0.612300
      8 C13          4.7240    -0.1570    17.4210 c          1 P0X       0.557200
      9 C15          3.4770     2.6860    19.4840 ca         1 P0X      -0.164000
     10 C17          3.6400     2.1910    21.8530 ca         1 P0X      -0.144000
     11 O2           4.7470    -0.4520    16.2370 o          1 P0X      -0.543000
     12 C12          5.2260    -1.0270    18.4950 cc         1 P0X      -0.251200
     13 N2           4.2370     1.0440    17.8600 ns         1 P0X      -0.373100
     14 C14          4.1060     1.4650    19.1910 ca         1 P0X       0.105600
     15 C19          4.5620     0.6150    20.2200 ca         1 P0X      -0.125800
     16 C18          4.2700     0.9700    21.5580 ca         1 P0X      -0.051000
     17 C16          3.2580     3.0590    20.8180 ca         1 P0X      -0.052000
     18 C11          5.2230    -0.6650    19.8370 cd         1 P0X      -0.041400
     19 O1           5.9850    -2.8040    20.5970 o          1 P0X      -0.576100
     20 C9           8.7490     0.4280    22.2500 c          1 P0X       0.553000
     21 O            9.2950     1.5260    22.2740 o          1 P0X      -0.540000
     22 N            9.4590    -0.7700    22.5580 n          1 P0X      -0.248400
     23 C           13.1150     0.0570    22.1640 ca         1 P0X       0.129000
     24 Cl          14.1510     0.9620    21.0670 cl         1 P0X      -0.203000
     25 C3          11.4480    -1.3380    23.9310 ca         1 P0X      -0.103000
     26 C2          12.8260    -1.2370    24.1940 ca         1 P0X      -0.096000
     27 C1          13.6640    -0.5500    23.3020 ca         1 P0X      -0.097000
     28 H1          11.3360     0.4470    21.0220 ha         1 P0X       0.140000
     29 H2           8.8860    -2.6910    21.9040 h1         1 P0X       0.059700
     30 H3           9.1100    -2.5840    23.6500 h1         1 P0X       0.059700
     31 H4           7.0080    -1.3770    23.9340 h1         1 P0X       0.076200
     32 H5           6.7060    -2.8460    22.9980 h1         1 P0X       0.076200
     33 H6           7.1890     0.7630    20.8410 h1         1 P0X       0.085200
     34 H7           6.7210     1.0030    22.5430 h1         1 P0X       0.085200
     35 H8           3.1410     3.3360    18.6800 ha         1 P0X       0.123000
     36 H9           3.4350     2.4590    22.8870 ha         1 P0X       0.123000
     37 H10          5.6640    -1.9560    18.1500 ha         1 P0X       0.219000
     38 H11          3.8940     1.6690    17.1430 hn         1 P0X       0.332500
     39 H12          4.5060     0.3000    22.3800 ha         1 P0X       0.122000
     40 H13          2.7650     4.0020    21.0490 ha         1 P0X       0.120000
     41 H14         10.8180    -1.8300    24.6670 ha         1 P0X       0.124000
     42 H15         13.2400    -1.6760    25.0990 ha         1 P0X       0.122000
     43 H16         14.7290    -0.4660    23.5050 ha         1 P0X       0.133000
@<TRIPOS>BOND
     1     1     5 1   
     2     1     6 1   
     3     1     7 1   
     4     2     3 ar  
     5     2    22 1   
     6     2    25 ar  
     7     3    23 ar  
     8     3    28 1   
     9     4     5 1   
    10     4    22 1   
    11     4    29 1   
    12     4    30 1   
    13     5    31 1   
    14     5    32 1   
    15     6    20 1   
    16     6    33 1   
    17     6    34 1   
    18     7    18 1   
    19     7    19 2   
    20     8    11 2   
    21     8    12 1   
    22     8    13 1   
    23     9    14 ar  
    24     9    17 ar  
    25     9    35 1   
    26    10    16 ar  
    27    10    17 ar  
    28    10    36 1   
    29    12    18 2   
    30    12    37 1   
    31    13    14 1   
    32    13    38 1   
    33    14    15 ar  
    34    15    16 ar  
    35    15    18 1   
    36    16    39 1   
    37    17    40 1   
    38    20    21 2   
    39    20    22 1   
    40    23    24 1   
    41    23    27 ar  
    42    25    26 ar  
    43    25    41 1   
    44    26    27 ar  
    45    26    42 1   
    46    27    43 1   
@<TRIPOS>SUBSTRUCTURE
     1 P0X         1 TEMP              0 ****  ****    0 ROOT
