@<TRIPOS>MOLECULE
P0Y
   57    59     1     0     0
SMALL
bcc


@<TRIPOS>ATOM
      1 N           -4.3390     1.0880     0.1590 n8         1 P0Y      -0.878800
      2 CA1         -4.1120    -0.3470     0.1170 c3         1 P0Y       0.139500
      3 CC          -2.6510    -0.5990    -0.2870 c3         1 P0Y       0.134100
      4 O1          -2.3900    -1.9750    -0.4900 oh         1 P0Y      -0.596800
      5 CB1         -5.0890    -1.1100    -0.8010 c3         1 P0Y      -0.076100
      6 CG          -6.5190    -0.8820    -0.4050 ca         1 P0Y      -0.068300
      7 CD1         -7.3140     0.0550    -1.0630 ca         1 P0Y      -0.129500
      8 CD2         -7.0720    -1.5760     0.6720 ca         1 P0Y      -0.129500
      9 CE1         -8.6230     0.2910    -0.6610 ca         1 P0Y      -0.129500
     10 CE2         -8.3770    -1.3430     1.0790 ca         1 P0Y      -0.129500
     11 CZ          -9.1590    -0.4070     0.4130 ca         1 P0Y      -0.141000
     12 CM          -1.6750     0.0240     0.7040 c3         1 P0Y       0.172800
     13 N11         -0.3040     0.0350     0.2110 n3         1 P0Y      -0.698600
     14 C21          0.3270     1.3380     0.3190 c6         1 P0Y       0.048500
     15 C31          1.7280     1.3110    -0.3030 c6         1 P0Y      -0.053400
     16 C41          2.5870     0.2210     0.3200 c6         1 P0Y       0.043400
     17 C51          1.8750    -1.1130     0.1900 c6         1 P0Y      -0.069400
     18 C61          0.4910    -1.0170     0.8150 c6         1 P0Y       0.183800
     19 C           -0.4590     2.4600    -0.4040 c          1 P0Y       0.931600
     20 O           -1.0720     2.1620    -1.4450 o          1 P0Y      -0.826800
     21 N12          8.6880     0.4360     0.4530 nb         1 P0Y      -0.671000
     22 C22          7.4080     0.2670     0.7540 ca         1 P0Y       0.414200
     23 C32          6.6150    -0.7560     0.2390 ca         1 P0Y      -0.173600
     24 C42          7.2130    -1.6410    -0.6500 ca         1 P0Y      -0.083000
     25 C52          8.5510    -1.4750    -0.9720 ca         1 P0Y      -0.252300
     26 C62          9.2440    -0.4220    -0.3960 ca         1 P0Y       0.390200
     27 S            4.2210     0.2500    -0.4820 ss         1 P0Y      -0.359200
     28 H           -4.1530     1.4920    -0.7520 hn         1 P0Y       0.348300
     29 HA1         -4.2560    -0.7250     1.1390 h1         1 P0Y       0.039700
     30 HC          -2.4760    -0.1230    -1.2560 h1         1 P0Y       0.121700
     31 HOR         -2.4970    -2.4300     0.3520 ho         1 P0Y       0.374000
     32 HB2         -4.9320    -0.7850    -1.8350 hc         1 P0Y       0.058200
     33 HB3         -4.8680    -2.1780    -0.7670 hc         1 P0Y       0.058200
     34 HD1         -6.9070     0.6010    -1.9050 ha         1 P0Y       0.130000
     35 HD2         -6.4700    -2.3110     1.1960 ha         1 P0Y       0.130000
     36 HE1         -9.2250     1.0210    -1.1870 ha         1 P0Y       0.122500
     37 HE2         -8.7880    -1.8950     1.9160 ha         1 P0Y       0.122500
     38 HZ         -10.1790    -0.2260     0.7260 ha         1 P0Y       0.121000
     39 HM1         -2.0180     1.0360     0.9170 h1         1 P0Y       0.040200
     40 HM2         -1.7440    -0.5120     1.6650 h1         1 P0Y       0.040200
     41 H1           0.4440     1.6350     1.3770 h1         1 P0Y       0.008700
     42 H31          1.6330     1.1330    -1.3800 hc         1 P0Y       0.066200
     43 H32          2.1920     2.2890    -0.1660 hc         1 P0Y       0.066200
     44 H41          2.7420     0.4530     1.3800 h1         1 P0Y       0.050700
     45 H51          1.7880    -1.3770    -0.8670 hc         1 P0Y       0.040200
     46 H52          2.4340    -1.9120     0.6830 hc         1 P0Y       0.040200
     47 H61          0.6040    -0.8710     1.9060 h1         1 P0Y       0.008200
     48 H62         -0.0250    -1.9690     0.6820 h1         1 P0Y       0.008200
     49 H42          6.6390    -2.4530    -1.0800 ha         1 P0Y       0.139000
     50 H53          9.0500    -2.1470    -1.6560 ha         1 P0Y       0.134000
     51 H63         10.2920    -0.2650    -0.6270 h4         1 P0Y       0.009100
     52 H2          -5.3100     1.2840     0.3670 hn         1 P0Y       0.348300
     53 OXT         -0.3550     3.5960     0.1020 o          1 P0Y      -0.826800
     54 CE           5.1700    -0.8610     0.6090 c3         1 P0Y       0.060000
     55 H11          4.8210    -1.8880     0.5020 h1         1 P0Y       0.061700
     56 H2A          5.0100    -0.5530     1.6440 h1         1 P0Y       0.061700
     57 H21          6.9750     0.9810     1.4490 h4         1 P0Y       0.025100
@<TRIPOS>BOND
     1     1     2 1   
     2     1    28 1   
     3     1    52 1   
     4     2     3 1   
     5     2     5 1   
     6     2    29 1   
     7     3     4 1   
     8     3    12 1   
     9     3    30 1   
    10     4    31 1   
    11     5     6 1   
    12     5    32 1   
    13     5    33 1   
    14     6     7 ar  
    15     6     8 ar  
    16     7     9 ar  
    17     7    34 1   
    18     8    10 ar  
    19     8    35 1   
    20     9    11 ar  
    21     9    36 1   
    22    10    11 ar  
    23    10    37 1   
    24    11    38 1   
    25    12    13 1   
    26    12    39 1   
    27    12    40 1   
    28    13    14 1   
    29    13    18 1   
    30    14    15 1   
    31    14    19 1   
    32    14    41 1   
    33    15    16 1   
    34    15    42 1   
    35    15    43 1   
    36    16    17 1   
    37    16    27 1   
    38    16    44 1   
    39    17    18 1   
    40    17    45 1   
    41    17    46 1   
    42    18    47 1   
    43    18    48 1   
    44    19    20 1   
    45    19    53 1   
    46    21    22 ar  
    47    21    26 ar  
    48    22    23 ar  
    49    22    57 1   
    50    23    24 ar  
    51    23    54 1   
    52    24    25 ar  
    53    24    49 1   
    54    25    26 ar  
    55    25    50 1   
    56    26    51 1   
    57    27    54 1   
    58    54    55 1   
    59    54    56 1   
@<TRIPOS>SUBSTRUCTURE
     1 P0Y         1 TEMP              0 ****  ****    0 ROOT
