@<TRIPOS>MOLECULE
P0Y
   57    59     1     0     0
SMALL
No Charge or Current Charge


@<TRIPOS>ATOM
      1 N           -4.5690     0.9370    -0.4440 n8         1 P0Y      -0.878800
      2 CA1         -4.1980    -0.3620     0.1630 c3         1 P0Y       0.139500
      3 CC          -2.6780    -0.7040    -0.0300 c3         1 P0Y       0.134100
      4 O1          -2.4140    -2.0070     0.5370 oh         1 P0Y      -0.596800
      5 CB1         -5.1560    -1.4590    -0.3830 c3         1 P0Y      -0.076100
      6 CG          -6.6370    -1.1140    -0.2300 ca         1 P0Y      -0.068300
      7 CD1         -7.4380    -0.8750    -1.3650 ca         1 P0Y      -0.129500
      8 CD2         -7.2170    -1.0390     1.0520 ca         1 P0Y      -0.129500
      9 CE1         -8.8000    -0.5600    -1.2190 ca         1 P0Y      -0.129500
     10 CE2         -8.5800    -0.7230     1.1980 ca         1 P0Y      -0.129500
     11 CZ          -9.3710    -0.4830     0.0620 ca         1 P0Y      -0.141000
     12 CM          -1.7220     0.3590     0.6130 c3         1 P0Y       0.172800
     13 N11         -0.3140     0.4230     0.0910 n3         1 P0Y      -0.698600
     14 C21          0.4460     1.6200     0.6620 c6         1 P0Y       0.048500
     15 C31          1.8820     1.7140     0.0730 c6         1 P0Y      -0.053400
     16 C41          2.6730     0.4070     0.2750 c6         1 P0Y       0.043400
     17 C51          1.8780    -0.7670    -0.3300 c6         1 P0Y      -0.069400
     18 C61          0.4570    -0.8420     0.2730 c6         1 P0Y       0.183800
     19 C           -0.2180     3.0670     0.5860 c          1 P0Y       0.931600
     20 O           -0.7220     3.4240    -0.4770 o          1 P0Y      -0.826800
     21 N12          8.9700    -0.0530     0.4750 nb         1 P0Y      -0.671000
     22 C22          7.6490    -0.0270     0.7780 ca         1 P0Y       0.414200
     23 C32          6.6990    -0.8670     0.1630 ca         1 P0Y      -0.173600
     24 C42          7.1330    -1.7740    -0.8190 ca         1 P0Y      -0.083000
     25 C52          8.5010    -1.7990    -1.1340 ca         1 P0Y      -0.252300
     26 C62          9.3800    -0.9290    -0.4690 ca         1 P0Y       0.390200
     27 S            4.3830     0.5320    -0.4190 ss         1 P0Y      -0.359200
     28 H           -4.4430     0.8830    -1.4580 hn         1 P0Y       0.348300
     29 HA1         -4.3810    -0.2690     1.2420 h1         1 P0Y       0.039700
     30 HC          -2.4780    -0.7110    -1.1110 h1         1 P0Y       0.121700
     31 HOR         -1.4500    -2.1570     0.4590 ho         1 P0Y       0.374000
     32 HB2         -4.9140    -1.6510    -1.4360 hc         1 P0Y       0.058200
     33 HB3         -4.9620    -2.4000     0.1430 hc         1 P0Y       0.058200
     34 HD1         -7.0050    -0.9320    -2.3620 ha         1 P0Y       0.130000
     35 HD2         -6.6120    -1.2270     1.9360 ha         1 P0Y       0.130000
     36 HE1         -9.4120    -0.3750    -2.1000 ha         1 P0Y       0.122500
     37 HE2         -9.0210    -0.6660     2.1910 ha         1 P0Y       0.122500
     38 HZ         -10.4260    -0.2390     0.1750 ha         1 P0Y       0.121000
     39 HM1         -2.1860     1.3400     0.4620 h1         1 P0Y       0.040200
     40 HM2         -1.7090     0.1990     1.7000 h1         1 P0Y       0.040200
     41 H1           0.5740     1.4310     1.7380 h1         1 P0Y       0.008700
     42 H31          1.8260     1.9540    -0.9980 hc         1 P0Y       0.066200
     43 H32          2.4220     2.5440     0.5500 hc         1 P0Y       0.066200
     44 H41          2.7810     0.2390     1.3570 h1         1 P0Y       0.050700
     45 H51          1.8100    -0.6510    -1.4200 hc         1 P0Y       0.040200
     46 H52          2.4010    -1.7140    -0.1460 hc         1 P0Y       0.040200
     47 H61          0.5330    -1.0860     1.3430 h1         1 P0Y       0.008200
     48 H62         -0.0530    -1.6780    -0.2210 h1         1 P0Y       0.008200
     49 H42          6.4310    -2.4380    -1.3220 ha         1 P0Y       0.139000
     50 H53          8.8850    -2.4830    -1.8860 ha         1 P0Y       0.134000
     51 H63         10.4450    -0.9320    -0.6980 h4         1 P0Y       0.009100
     52 H2          -5.5810     1.0600    -0.3320 hn         1 P0Y       0.348300
     53 OXT         -0.5720     3.5790     1.6450 o          1 P0Y      -0.826800
     54 CE           5.2340    -0.7860     0.5550 c3         1 P0Y       0.060000
     55 H11          4.7420    -1.7490     0.3690 h1         1 P0Y       0.061700
     56 H2A          5.1440    -0.5570     1.6250 h1         1 P0Y       0.061700
     57 H21          7.3450     0.6890     1.5400 h4         1 P0Y       0.025100
@<TRIPOS>BOND
     1     1     2 1   
     2     1    28 1   
     3     1    52 1   
     4     2     3 1   
     5     2     5 1   
     6     2    29 1   
     7     3     4 1   
     8     3    12 1   
     9     3    30 1   
    10     4    31 1   
    11     5     6 1   
    12     5    32 1   
    13     5    33 1   
    14     6     7 ar  
    15     6     8 ar  
    16     7     9 ar  
    17     7    34 1   
    18     8    10 ar  
    19     8    35 1   
    20     9    11 ar  
    21     9    36 1   
    22    10    11 ar  
    23    10    37 1   
    24    11    38 1   
    25    12    13 1   
    26    12    39 1   
    27    12    40 1   
    28    13    14 1   
    29    13    18 1   
    30    14    15 1   
    31    14    19 1   
    32    14    41 1   
    33    15    16 1   
    34    15    42 1   
    35    15    43 1   
    36    16    17 1   
    37    16    27 1   
    38    16    44 1   
    39    17    18 1   
    40    17    45 1   
    41    17    46 1   
    42    18    47 1   
    43    18    48 1   
    44    19    20 1   
    45    19    53 1   
    46    21    22 ar  
    47    21    26 ar  
    48    22    23 ar  
    49    22    57 1   
    50    23    24 ar  
    51    23    54 1   
    52    24    25 ar  
    53    24    49 1   
    54    25    26 ar  
    55    25    50 1   
    56    26    51 1   
    57    27    54 1   
    58    54    55 1   
    59    54    56 1   
@<TRIPOS>SUBSTRUCTURE
     1 P0Y         1 TEMP              0 ****  ****    0 ROOT
