@<TRIPOS>MOLECULE
P10
   64    66     1     0     0
SMALL
No Charge or Current Charge


@<TRIPOS>ATOM
      1 C12         -4.1900     1.1080     2.7200 c          1 P10       0.561100
      2 C2          -5.2980     2.1920     2.8770 c3         1 P10       0.060600
      3 O1          -5.5590     2.5690     4.2530 oh         1 P10      -0.628000
      4 O13         -3.9240     0.3030     3.6100 o          1 P10      -0.479100
      5 C14         -3.4270     1.1120     1.3610 c3         1 P10       0.010700
      6 C15         -4.3300     0.6320     0.1920 c3         1 P10      -0.086400
      7 C16         -3.6750     0.7180    -1.2060 c3         1 P10      -0.030100
      8 C17         -4.6460     0.3260    -2.3110 ca         1 P10      -0.087300
      9 C18         -5.4090     1.3100    -2.9700 ca         1 P10      -0.105500
     10 C19         -6.3090     0.9470    -3.9870 ca         1 P10      -0.106500
     11 C20         -6.4520    -0.4030    -4.3500 ca         1 P10      -0.107000
     12 C21         -5.6960    -1.3890    -3.6950 ca         1 P10      -0.106500
     13 C22         -4.7960    -1.0260    -2.6780 ca         1 P10      -0.105500
     14 N23         -2.1800     0.3140     1.4610 ns         1 P10      -0.488900
     15 C24         -0.9620     0.6640     0.9100 c          1 P10       0.595100
     16 O25         -0.8120     1.7070     0.2850 o          1 P10      -0.601100
     17 C26          0.1860    -0.3590     1.1450 c3         1 P10       0.046700
     18 C27          0.6320    -0.3760     2.6320 c3         1 P10      -0.055100
     19 C28          1.7610    -1.3610     2.9160 ca         1 P10      -0.087300
     20 C29          3.0960    -0.9150     2.9930 ca         1 P10      -0.098000
     21 C30          4.1350    -1.8280     3.2440 ca         1 P10      -0.108500
     22 C31          3.8470    -3.1910     3.4220 ca         1 P10      -0.104000
     23 C32          2.5180    -3.6420     3.3480 ca         1 P10      -0.108500
     24 C33          1.4780    -2.7300     3.0960 ca         1 P10      -0.098000
     25 N34          1.3290    -0.0680     0.2500 ns         1 P10      -0.479900
     26 C35          2.1160    -1.0060    -0.3530 c          1 P10       0.643100
     27 O36          1.9390    -2.2130    -0.3060 o          1 P10      -0.539000
     28 O37          3.1020    -0.3720    -1.0420 os         1 P10      -0.457100
     29 C38          4.0510    -1.1910    -1.7410 c3         1 P10       0.234900
     30 C39          5.0690    -0.2760    -2.3970 ca         1 P10      -0.150300
     31 C40          6.1420     0.2580    -1.6600 ca         1 P10      -0.049000
     32 C41          7.0510     1.0970    -2.3240 ca         1 P10      -0.169000
     33 C42          6.8600     1.3730    -3.6880 ca         1 P10       0.343900
     34 N43          5.8300     0.8650    -4.4030 nb         1 P10      -0.666000
     35 C44          4.9530     0.0560    -3.7600 ca         1 P10       0.354900
     36 H021        -6.2090     1.8000     2.4050 h1         1 P10       0.042200
     37 H022        -4.9860     3.0720     2.2990 h1         1 P10       0.042200
     38 H01         -6.2790     3.2400     4.2470 ho         1 P10       0.447000
     39 H14         -3.1540     2.1590     1.1730 h1         1 P10       0.078700
     40 H151        -4.6400    -0.4040     0.3780 hc         1 P10       0.060700
     41 H152        -5.2460     1.2340     0.1760 hc         1 P10       0.060700
     42 H161        -3.3080     1.7380    -1.3700 hc         1 P10       0.051700
     43 H162        -2.7950     0.0650    -1.2410 hc         1 P10       0.051700
     44 H18         -5.3060     2.3570    -2.6940 ha         1 P10       0.109000
     45 H19         -6.8950     1.7110    -4.4930 ha         1 P10       0.114000
     46 H20         -7.1490    -0.6840    -5.1370 ha         1 P10       0.114000
     47 H21         -5.8070    -2.4350    -3.9740 ha         1 P10       0.114000
     48 H22         -4.2150    -1.7950    -2.1740 ha         1 P10       0.109000
     49 H23         -2.2110    -0.5580     1.9810 hn         1 P10       0.326500
     50 H26         -0.2170    -1.3480     0.8880 h1         1 P10       0.091700
     51 H271         0.9380     0.6380     2.9210 hc         1 P10       0.067700
     52 H272        -0.2300    -0.6170     3.2660 hc         1 P10       0.067700
     53 H29          3.3290     0.1380     2.8520 ha         1 P10       0.110000
     54 H30          5.1640    -1.4780     3.2990 ha         1 P10       0.111500
     55 H31          4.6510    -3.8970     3.6160 ha         1 P10       0.113000
     56 H32          2.2930    -4.6970     3.4850 ha         1 P10       0.111500
     57 H33          0.4530    -3.0880     3.0360 ha         1 P10       0.110000
     58 H34          1.5770     0.8980     0.0720 hn         1 P10       0.340500
     59 H381         4.5650    -1.8700    -1.0480 h1         1 P10       0.060200
     60 H382         3.5510    -1.8020    -2.5050 h1         1 P10       0.060200
     61 H40          6.2660     0.0300    -0.6020 ha         1 P10       0.123000
     62 H41          7.8940     1.5320    -1.7940 ha         1 P10       0.125000
     63 H42          7.5520     2.0210    -4.2250 h4         1 P10       0.020100
     64 H44          4.1340    -0.3370    -4.3600 h4         1 P10       0.020100
@<TRIPOS>BOND
     1     1     2 1   
     2     1     4 2   
     3     1     5 1   
     4     2     3 1   
     5     2    36 1   
     6     2    37 1   
     7     3    38 1   
     8     5     6 1   
     9     5    14 1   
    10     5    39 1   
    11     6     7 1   
    12     6    40 1   
    13     6    41 1   
    14     7     8 1   
    15     7    42 1   
    16     7    43 1   
    17     8     9 ar  
    18     8    13 ar  
    19     9    10 ar  
    20     9    44 1   
    21    10    11 ar  
    22    10    45 1   
    23    11    12 ar  
    24    11    46 1   
    25    12    13 ar  
    26    12    47 1   
    27    13    48 1   
    28    14    15 1   
    29    14    49 1   
    30    15    16 2   
    31    15    17 1   
    32    17    18 1   
    33    17    25 1   
    34    17    50 1   
    35    18    19 1   
    36    18    51 1   
    37    18    52 1   
    38    19    20 ar  
    39    19    24 ar  
    40    20    21 ar  
    41    20    53 1   
    42    21    22 ar  
    43    21    54 1   
    44    22    23 ar  
    45    22    55 1   
    46    23    24 ar  
    47    23    56 1   
    48    24    57 1   
    49    25    26 1   
    50    25    58 1   
    51    26    27 2   
    52    26    28 1   
    53    28    29 1   
    54    29    30 1   
    55    29    59 1   
    56    29    60 1   
    57    30    31 ar  
    58    30    35 ar  
    59    31    32 ar  
    60    31    61 1   
    61    32    33 ar  
    62    32    62 1   
    63    33    34 ar  
    64    33    63 1   
    65    34    35 ar  
    66    35    64 1   
@<TRIPOS>SUBSTRUCTURE
     1 P10         1 TEMP              0 ****  ****    0 ROOT
