@<TRIPOS>MOLECULE
P10
   64    66     1     0     0
SMALL
bcc


@<TRIPOS>ATOM
      1 C12         -3.2700     1.9670     1.6570 c          1 P10       0.561100
      2 C2          -3.8060     3.3710     1.6910 c3         1 P10       0.037400
      3 O1          -4.0910     3.7460     3.0020 oh         1 P10      -0.565800
      4 O13         -2.9460     1.3570     2.6440 o          1 P10      -0.479100
      5 C14         -3.1870     1.3580     0.2630 c3         1 P10       0.010700
      6 C15         -4.4800     0.5920    -0.0270 c3         1 P10      -0.086400
      7 C16         -4.5750     0.1270    -1.4820 c3         1 P10      -0.030100
      8 C17         -5.8860    -0.5580    -1.7520 ca         1 P10      -0.087300
      9 C18         -7.0130     0.1780    -2.1120 ca         1 P10      -0.123500
     10 C19         -8.2320    -0.4490    -2.3310 ca         1 P10      -0.124500
     11 C20         -8.3430    -1.8260    -2.1900 ca         1 P10      -0.125000
     12 C21         -7.2270    -2.5700    -1.8280 ca         1 P10      -0.124500
     13 C22         -6.0100    -1.9390    -1.6110 ca         1 P10      -0.123500
     14 N23         -2.0500     0.4810     0.1540 ns         1 P10      -0.555900
     15 C24         -0.8040     0.9440     0.3220 c          1 P10       0.662100
     16 O25         -0.5550     2.1300     0.4750 o          1 P10      -0.601100
     17 C26          0.2810    -0.1200     0.3730 c3         1 P10       0.046700
     18 C27          0.4620    -0.5690     1.8410 c3         1 P10      -0.055100
     19 C28          1.5750    -1.5680     1.9670 ca         1 P10      -0.087300
     20 C29          2.8730    -1.1520     2.2560 ca         1 P10      -0.116000
     21 C30          3.9180    -2.0650     2.3020 ca         1 P10      -0.126500
     22 C31          3.6790    -3.4100     2.0620 ca         1 P10      -0.122000
     23 C32          2.3860    -3.8370     1.7820 ca         1 P10      -0.126500
     24 C33          1.3450    -2.9210     1.7340 ca         1 P10      -0.116000
     25 N34          1.5000     0.4110    -0.1720 ns         1 P10      -0.546900
     26 C35          2.3480    -0.3490    -0.8960 c          1 P10       0.759100
     27 O36          2.0880    -1.4280    -1.3830 o          1 P10      -0.588000
     28 O37          3.5260     0.2710    -1.0340 os         1 P10      -0.433900
     29 C38          4.5530    -0.4300    -1.7340 c3         1 P10       0.211700
     30 C39          5.8410     0.2730    -1.4430 ca         1 P10      -0.215600
     31 C40          6.3630     0.3160    -0.1540 ca         1 P10      -0.067000
     32 C41          7.5590     0.9750     0.0650 ca         1 P10      -0.252300
     33 C42          8.1960     1.5680    -1.0170 ca         1 P10       0.409200
     34 N43          7.7120     1.5350    -2.2520 nb         1 P10      -0.666000
     35 C44          6.5590     0.9040    -2.4490 ca         1 P10       0.420200
     36 H021        -4.6780     3.4270     1.0230 h1         1 P10       0.042200
     37 H022        -3.0330     3.9970     1.2190 h1         1 P10       0.042200
     38 H01         -4.4050     4.6540     2.9890 ho         1 P10       0.408000
     39 H14         -3.0980     2.1670    -0.4710 h1         1 P10       0.078700
     40 H151        -4.5590    -0.2600     0.6530 hc         1 P10       0.060700
     41 H152        -5.3290     1.2460     0.1910 hc         1 P10       0.060700
     42 H161        -4.4660     0.9940    -2.1390 hc         1 P10       0.051700
     43 H162        -3.7540    -0.5530    -1.7170 hc         1 P10       0.051700
     44 H18         -6.9340     1.2530    -2.2280 ha         1 P10       0.127000
     45 H19         -9.0960     0.1390    -2.6150 ha         1 P10       0.132000
     46 H20         -9.2920    -2.3170    -2.3650 ha         1 P10       0.132000
     47 H21         -7.3040    -3.6440    -1.7190 ha         1 P10       0.132000
     48 H22         -5.1410    -2.5260    -1.3350 ha         1 P10       0.127000
     49 H23         -2.2040    -0.5130     0.0850 hn         1 P10       0.326500
     50 H26         -0.0130    -0.9820    -0.2280 h1         1 P10       0.091700
     51 H271         0.6740     0.3110     2.4550 hc         1 P10       0.067700
     52 H272        -0.4790    -0.9900     2.2000 hc         1 P10       0.067700
     53 H29          3.0690    -0.1050     2.4540 ha         1 P10       0.128000
     54 H30          4.9200    -1.7250     2.5350 ha         1 P10       0.129500
     55 H31          4.4910    -4.1240     2.0980 ha         1 P10       0.131000
     56 H32          2.1880    -4.8860     1.6020 ha         1 P10       0.129500
     57 H33          0.3410    -3.2630     1.5080 ha         1 P10       0.128000
     58 H34          1.8520     1.2640     0.2360 hn         1 P10       0.340500
     59 H381         4.6020    -1.4680    -1.3970 h1         1 P10       0.060200
     60 H382         4.3490    -0.4350    -2.8080 h1         1 P10       0.060200
     61 H40          5.8430    -0.1640     0.6670 ha         1 P10       0.141000
     62 H41          7.9970     1.0300     1.0520 ha         1 P10       0.143000
     63 H42          9.1360     2.0900    -0.8770 h4         1 P10       0.020100
     64 H44          6.1820     0.8950    -3.4670 h4         1 P10       0.020100
@<TRIPOS>BOND
     1     1     2 1   
     2     1     4 2   
     3     1     5 1   
     4     2     3 1   
     5     2    36 1   
     6     2    37 1   
     7     3    38 1   
     8     5     6 1   
     9     5    14 1   
    10     5    39 1   
    11     6     7 1   
    12     6    40 1   
    13     6    41 1   
    14     7     8 1   
    15     7    42 1   
    16     7    43 1   
    17     8     9 ar  
    18     8    13 ar  
    19     9    10 ar  
    20     9    44 1   
    21    10    11 ar  
    22    10    45 1   
    23    11    12 ar  
    24    11    46 1   
    25    12    13 ar  
    26    12    47 1   
    27    13    48 1   
    28    14    15 1   
    29    14    49 1   
    30    15    16 2   
    31    15    17 1   
    32    17    18 1   
    33    17    25 1   
    34    17    50 1   
    35    18    19 1   
    36    18    51 1   
    37    18    52 1   
    38    19    20 ar  
    39    19    24 ar  
    40    20    21 ar  
    41    20    53 1   
    42    21    22 ar  
    43    21    54 1   
    44    22    23 ar  
    45    22    55 1   
    46    23    24 ar  
    47    23    56 1   
    48    24    57 1   
    49    25    26 1   
    50    25    58 1   
    51    26    27 2   
    52    26    28 1   
    53    28    29 1   
    54    29    30 1   
    55    29    59 1   
    56    29    60 1   
    57    30    31 ar  
    58    30    35 ar  
    59    31    32 ar  
    60    31    61 1   
    61    32    33 ar  
    62    32    62 1   
    63    33    34 ar  
    64    33    63 1   
    65    34    35 ar  
    66    35    64 1   
@<TRIPOS>SUBSTRUCTURE
     1 P10         1 TEMP              0 ****  ****    0 ROOT
