@<TRIPOS>MOLECULE
P11
  122   126     1     0     0
SMALL
No Charge or Current Charge


@<TRIPOS>ATOM
      1 C2           9.6680     0.7600     6.2020 cc         1 P11       0.338000
      2 N3           9.4960    -0.1620     5.2450 nd         1 P11      -0.676000
      3 C4           9.9040    -1.3650     5.7750 cd         1 P11       0.229900
      4 C5          10.3320    -1.2000     7.0620 cc         1 P11      -0.215000
      5 N2          10.1840     0.1430     7.3380 na         1 P11      -0.121500
      6 C3          10.5190     0.7920     8.6160 c3         1 P11       0.062900
      7 C1           9.3390     2.2250     6.0300 c          1 P11       0.538600
      8 O1           9.4880     3.0870     6.8940 o          1 P11      -0.612100
      9 N1           8.8380     2.5050     4.7650 ns         1 P11      -0.355100
     10 C7           7.6150     5.1560     2.6880 cc         1 P11      -0.229600
     11 C8           7.9380     3.8350     2.9180 cd         1 P11      -0.178000
     12 C9           8.4260     3.7130     4.2280 cd         1 P11      -0.024400
     13 C10          8.4190     4.9360     4.8350 cc         1 P11      -0.176000
     14 N5           7.9170     5.8290     3.8840 na         1 P11       0.066000
     15 C11          7.7380     7.2700     4.1220 c3         1 P11       0.060900
     16 O2           6.7830     6.8790     1.2490 o          1 P11      -0.610100
     17 N4           6.8860     4.7610     0.4320 ns         1 P11      -0.509900
     18 C13          6.3300     5.0330    -0.8960 c3         1 P11       0.115000
     19 C14          4.7930     5.1150    -0.8660 c3         1 P11      -0.172400
     20 C12          4.2400     5.3580    -2.2700 c          1 P11       0.605100
     21 O3           4.3360     6.4460    -2.8170 o          1 P11      -0.585100
     22 N6           3.6110     4.2710    -2.8320 ns         1 P11      -0.463400
     23 C16          1.9450     3.2470    -5.7190 cc         1 P11       0.349000
     24 N9           2.4220     2.9940    -4.4930 nd         1 P11      -0.722000
     25 C18          3.0080     4.1470    -4.0530 cd         1 P11       0.359900
     26 C19          2.9060     5.1340    -4.9950 cc         1 P11      -0.210000
     27 N8           2.2300     4.5660    -6.0540 na         1 P11      -0.114500
     28 C17          1.8830     5.2500    -7.3110 c3         1 P11       0.063900
     29 O4           0.7680     2.4290    -7.6980 o          1 P11      -0.611100
     30 N7           1.0880     0.9940    -5.9640 ns         1 P11      -0.495900
     31 C21          0.4390    -0.1700    -6.5660 c3         1 P11       0.118000
     32 C22          0.4860    -1.3840    -5.6240 c3         1 P11      -0.173400
     33 C20         -0.1810    -2.5960    -6.2740 c          1 P11       0.608100
     34 O5           0.3550    -3.2100    -7.1830 o          1 P11      -0.585100
     35 N10         -1.3970    -2.9420    -5.7280 ns         1 P11      -0.463400
     36 C24         -3.9680    -5.2800    -6.0080 cc         1 P11       0.346000
     37 N13         -3.4270    -4.2030    -5.4240 nd         1 P11      -0.721000
     38 C26         -2.2390    -3.9680    -6.0570 cd         1 P11       0.363900
     39 C27         -2.0230    -4.8910    -7.0430 cc         1 P11      -0.206000
     40 N12         -3.1190    -5.7260    -7.0150 na         1 P11      -0.111500
     41 C25         -3.3340    -6.8820    -7.9010 c3         1 P11       0.062900
     42 O6          -5.8070    -6.8720    -6.1200 o          1 P11      -0.607100
     43 N11         -5.8860    -5.1860    -4.5570 ns         1 P11      -0.360100
     44 C29         -8.7700    -5.1130    -2.4340 cc         1 P11      -0.241600
     45 C30         -7.5590    -4.6150    -2.8650 cd         1 P11      -0.176000
     46 C31         -7.0860    -5.4240    -3.9080 cd         1 P11      -0.017400
     47 C32         -7.9770    -6.4300    -4.1480 cc         1 P11      -0.169000
     48 N15         -9.0190    -6.2400    -3.2360 na         1 P11       0.068000
     49 C33        -10.2010    -7.1090    -3.1440 c3         1 P11       0.060900
     50 O7         -10.6720    -5.0070    -0.9840 o          1 P11      -0.611100
     51 N14         -9.0640    -3.4170    -0.7570 ns         1 P11      -0.507900
     52 C35         -9.6730    -2.6740     0.3480 c3         1 P11       0.119000
     53 C36         -9.4320    -3.3620     1.7030 c3         1 P11      -0.184400
     54 C34        -10.0560    -2.5500     2.8330 c          1 P11       0.598100
     55 O8         -11.2620    -2.5160     3.0270 o          1 P11      -0.591100
     56 N16         -9.1600    -1.8860     3.6400 ns         1 P11      -0.517900
     57 C37         -9.5270    -1.0410     4.7780 c3         1 P11       0.107000
     58 C38        -10.0180     0.3480     4.3280 c3         1 P11      -0.140400
     59 C39        -10.5580     1.2420     5.4620 c3         1 P11       0.108600
     60 N17         -9.5090     1.6400     6.5030 nx         1 P11      -0.676000
     61 C40         -9.3970     0.6340     7.6610 c3         1 P11       0.079900
     62 C41         -9.7610     3.0580     7.0340 c3         1 P11       0.079900
     63 H4           9.8680    -2.2830     5.2000 h4         1 P11       0.038100
     64 H5          10.7170    -1.9180     7.7750 h4         1 P11       0.160000
     65 H31          9.6210     1.2590     9.0410 h1         1 P11       0.065700
     66 H32A        11.2850     1.5600     8.4520 h1         1 P11       0.065700
     67 H33         10.9040     0.0480     9.3240 h1         1 P11       0.065700
     68 HN1          8.7840     1.6730     4.1850 hn         1 P11       0.349500
     69 H8           7.8380     3.0130     2.2170 ha         1 P11       0.129000
     70 H10          8.7150     5.2460     5.8280 h4         1 P11       0.177000
     71 H111         8.3410     7.8370     3.4030 h1         1 P11       0.063700
     72 H112         8.0570     7.5230     5.1390 h1         1 P11       0.063700
     73 H113         6.6800     7.5320     3.9990 h1         1 P11       0.063700
     74 HN4          7.1520     3.8130     0.6630 hn         1 P11       0.313500
     75 H131         6.7470     5.9760    -1.2770 h1         1 P11       0.072700
     76 H132         6.6430     4.2290    -1.5770 h1         1 P11       0.072700
     77 H141         4.4000     4.1770    -0.4550 hc         1 P11       0.063200
     78 H142         4.5000     5.9530    -0.2230 hc         1 P11       0.063200
     79 HN6          3.6060     3.4490    -2.2450 hn         1 P11       0.330500
     80 H19          3.2470     6.1600    -4.9990 h4         1 P11       0.190000
     81 H171         2.2380     6.2870    -7.2840 h1         1 P11       0.067700
     82 H172         0.7940     5.2490    -7.4440 h1         1 P11       0.067700
     83 H173         2.3530     4.7330    -8.1560 h1         1 P11       0.067700
     84 HN7          1.4910     0.9180    -5.0340 hn         1 P11       0.339500
     85 H211        -0.6060     0.0840    -6.7950 h1         1 P11       0.072200
     86 H212         0.9470    -0.4110    -7.5100 h1         1 P11       0.072200
     87 H221         1.5370    -1.6280    -5.4250 hc         1 P11       0.066200
     88 H222        -0.0200    -1.1230    -4.6870 hc         1 P11       0.066200
     89 H10N        -1.6970    -2.3400    -4.9750 hn         1 P11       0.331500
     90 H27         -1.2050    -5.0190    -7.7390 h4         1 P11       0.191000
     91 H251        -2.4920    -6.9830    -8.5970 h1         1 P11       0.068033
     92 H252        -4.2570    -6.7410    -8.4760 h1         1 P11       0.068033
     93 H253        -3.4150    -7.7980    -7.3020 h1         1 P11       0.068033
     94 H11N        -5.3200    -4.3960    -4.2600 hn         1 P11       0.349500
     95 H30         -7.0410    -3.7440    -2.4750 ha         1 P11       0.125000
     96 H32         -7.9670    -7.2430    -4.8630 h4         1 P11       0.181000
     97 H331       -11.1050    -6.5190    -3.3350 h1         1 P11       0.064367
     98 H332       -10.1330    -7.9140    -3.8860 h1         1 P11       0.064367
     99 H333       -10.2560    -7.5480    -2.1400 h1         1 P11       0.064367
    100 H14N        -8.1780    -3.1000    -1.1260 hn         1 P11       0.320500
    101 H351       -10.7530    -2.5770     0.1650 h1         1 P11       0.065200
    102 H352        -9.2450    -1.6620     0.3680 h1         1 P11       0.065200
    103 H361        -9.9020    -4.3520     1.6830 hc         1 P11       0.077200
    104 H362        -8.3510    -3.4630     1.8570 hc         1 P11       0.077200
    105 H16N        -8.1770    -1.9880     3.4120 hn         1 P11       0.326500
    106 H371        -8.6430    -0.9300     5.4190 h1         1 P11       0.055200
    107 H372       -10.3110    -1.5430     5.3600 h1         1 P11       0.055200
    108 H381        -9.2090     0.8710     3.8050 hc         1 P11       0.088700
    109 H382       -10.8260     0.2170     3.5970 hc         1 P11       0.088700
    110 H391       -11.3910     0.7460     5.9670 hx         1 P11       0.101700
    111 H392       -10.9460     2.1580     5.0070 hx         1 P11       0.101700
    112 H17N        -8.5810     1.6680     6.0160 hn         1 P11       0.498000
    113 H401       -10.3460     0.5960     8.2010 hx         1 P11       0.100200
    114 H402        -8.6070     0.9490     8.3480 hx         1 P11       0.100200
    115 H403        -9.1630    -0.3620     7.2810 hx         1 P11       0.100200
    116 H411        -8.9690     3.3380     7.7340 hx         1 P11       0.100200
    117 H412        -9.7750     3.7690     6.2040 hx         1 P11       0.100200
    118 H413       -10.7240     3.0890     7.5500 hx         1 P11       0.100200
    119 C6           7.0620     5.7010     1.4210 c          1 P11       0.641700
    120 C15          1.2170     2.2290    -6.5720 c          1 P11       0.540600
    121 C23         -5.2930    -5.8820    -5.6020 c          1 P11       0.543600
    122 C28         -9.6010    -4.5400    -1.3430 c          1 P11       0.640700
@<TRIPOS>BOND
     1     1     2 2   
     2     1     5 1   
     3     1     7 1   
     4     2     3 1   
     5     3     4 2   
     6     3    63 1   
     7     4     5 1   
     8     4    64 1   
     9     5     6 1   
    10     6    65 1   
    11     6    66 1   
    12     6    67 1   
    13     7     8 2   
    14     7     9 1   
    15     9    12 1   
    16     9    68 1   
    17    10    11 2   
    18    10    14 1   
    19    10   119 1   
    20    11    12 1   
    21    11    69 1   
    22    12    13 2   
    23    13    14 1   
    24    13    70 1   
    25    14    15 1   
    26    15    71 1   
    27    15    72 1   
    28    15    73 1   
    29    16   119 2   
    30    17    18 1   
    31    17    74 1   
    32    17   119 1   
    33    18    19 1   
    34    18    75 1   
    35    18    76 1   
    36    19    20 1   
    37    19    77 1   
    38    19    78 1   
    39    20    21 2   
    40    20    22 1   
    41    22    25 1   
    42    22    79 1   
    43    23    24 2   
    44    23    27 1   
    45    23   120 1   
    46    24    25 1   
    47    25    26 2   
    48    26    27 1   
    49    26    80 1   
    50    27    28 1   
    51    28    81 1   
    52    28    82 1   
    53    28    83 1   
    54    29   120 2   
    55    30    31 1   
    56    30    84 1   
    57    30   120 1   
    58    31    32 1   
    59    31    85 1   
    60    31    86 1   
    61    32    33 1   
    62    32    87 1   
    63    32    88 1   
    64    33    34 2   
    65    33    35 1   
    66    35    38 1   
    67    35    89 1   
    68    36    37 2   
    69    36    40 1   
    70    36   121 1   
    71    37    38 1   
    72    38    39 2   
    73    39    40 1   
    74    39    90 1   
    75    40    41 1   
    76    41    91 1   
    77    41    92 1   
    78    41    93 1   
    79    42   121 2   
    80    43    46 1   
    81    43    94 1   
    82    43   121 1   
    83    44    45 2   
    84    44    48 1   
    85    44   122 1   
    86    45    46 1   
    87    45    95 1   
    88    46    47 2   
    89    47    48 1   
    90    47    96 1   
    91    48    49 1   
    92    49    97 1   
    93    49    98 1   
    94    49    99 1   
    95    50   122 2   
    96    51    52 1   
    97    51   100 1   
    98    51   122 1   
    99    52    53 1   
   100    52   101 1   
   101    52   102 1   
   102    53    54 1   
   103    53   103 1   
   104    53   104 1   
   105    54    55 2   
   106    54    56 1   
   107    56    57 1   
   108    56   105 1   
   109    57    58 1   
   110    57   106 1   
   111    57   107 1   
   112    58    59 1   
   113    58   108 1   
   114    58   109 1   
   115    59    60 1   
   116    59   110 1   
   117    59   111 1   
   118    60    61 1   
   119    60    62 1   
   120    60   112 1   
   121    61   113 1   
   122    61   114 1   
   123    61   115 1   
   124    62   116 1   
   125    62   117 1   
   126    62   118 1   
@<TRIPOS>SUBSTRUCTURE
     1 P11         1 TEMP              0 ****  ****    0 ROOT
