@<TRIPOS>MOLECULE
P11
  122   126     1     0     0
SMALL
abcg2


@<TRIPOS>ATOM
      1 C2           6.8640     2.5790     7.4010 cc         1 P11       0.338000
      2 N3           5.6820     2.0970     7.0310 nd         1 P11      -0.676000
      3 C4           5.1610     1.4900     8.1350 cd         1 P11       0.229900
      4 C5           6.0380     1.6100     9.1870 cc         1 P11      -0.215000
      5 N2           7.1180     2.3020     8.7130 na         1 P11      -0.121500
      6 C3           8.2950     2.6450     9.5080 c3         1 P11       0.062900
      7 C1           7.7750     3.3210     6.5060 c          1 P11       0.538600
      8 O1           8.8540     3.7850     6.8790 o          1 P11      -0.612100
      9 N1           7.2980     3.4350     5.2440 ns         1 P11      -0.355100
     10 C7           8.2580     4.9050     2.1030 cc         1 P11      -0.229600
     11 C8           7.3850     4.1470     2.8740 cd         1 P11      -0.178000
     12 C9           7.9150     4.0960     4.1810 cd         1 P11      -0.024400
     13 C10          9.1000     4.8180     4.1760 cc         1 P11      -0.176000
     14 N5           9.2930     5.3080     2.9150 na         1 P11       0.066000
     15 C11         10.4640     6.0910     2.5420 c3         1 P11       0.060900
     16 O2           8.7320     6.2770     0.2190 o          1 P11      -0.610100
     17 N4           7.3310     4.5090    -0.0550 ns         1 P11      -0.509900
     18 C13          7.0240     4.7670    -1.4490 c3         1 P11       0.115000
     19 C14          5.5900     4.3460    -1.7540 c3         1 P11      -0.172400
     20 C12          5.2100     4.6230    -3.1940 c          1 P11       0.605100
     21 O3           5.5310     5.6570    -3.7740 o          1 P11      -0.585100
     22 N6           4.4620     3.6570    -3.7870 ns         1 P11      -0.463400
     23 C16          2.8110     2.9760    -6.7520 cc         1 P11       0.349000
     24 N9           3.1920     2.6560    -5.5180 nd         1 P11      -0.722000
     25 C18          3.9280     3.7060    -5.0710 cd         1 P11       0.359900
     26 C19          4.0040     4.6840    -6.0420 cc         1 P11      -0.210000
     27 N8           3.2850     4.1990    -7.1070 na         1 P11      -0.114500
     28 C17          3.1040     4.9200    -8.3640 c3         1 P11       0.063900
     29 O4           1.5700     2.4620    -8.7200 o          1 P11      -0.611100
     30 N7           1.6950     0.9140    -7.0550 ns         1 P11      -0.495900
     31 C21          0.8540    -0.0860    -7.6870 c3         1 P11       0.118000
     32 C22          0.2730    -1.0050    -6.6200 c3         1 P11      -0.173400
     33 C20         -0.5860    -2.1000    -7.2180 c          1 P11       0.608100
     34 O5          -0.2810    -2.6970    -8.2460 o          1 P11      -0.585100
     35 N10         -1.7090    -2.3880    -6.5110 ns         1 P11      -0.463400
     36 C24         -4.4020    -4.5620    -6.5030 cc         1 P11       0.346000
     37 N13         -3.6990    -3.5560    -5.9850 nd         1 P11      -0.721000
     38 C26         -2.6330    -3.3850    -6.8060 cd         1 P11       0.363900
     39 C27         -2.6760    -4.2960    -7.8430 cc         1 P11      -0.206000
     40 N12         -3.8120    -5.0370    -7.6320 na         1 P11      -0.111500
     41 C25         -4.2500    -6.1250    -8.5020 c3         1 P11       0.062900
     42 O6          -6.3150    -5.9810    -6.4350 o          1 P11      -0.607100
     43 N11         -5.9980    -4.4450    -4.7720 ns         1 P11      -0.360100
     44 C29         -8.6090    -4.5280    -2.2960 cc         1 P11      -0.241600
     45 C30         -7.3950    -4.0420    -2.7680 cd         1 P11      -0.176000
     46 C31         -7.1330    -4.6830    -3.9970 cd         1 P11      -0.017400
     47 C32         -8.1920    -5.5440    -4.2490 cc         1 P11      -0.169000
     48 N15         -9.0760    -5.4450    -3.2130 na         1 P11       0.068000
     49 C33        -10.3200    -6.2040    -3.1660 c3         1 P11       0.060900
     50 O7         -10.2260    -4.9240    -0.6000 o          1 P11      -0.611100
     51 N14         -8.8980    -3.1000    -0.4010 ns         1 P11      -0.507900
     52 C35         -9.3700    -2.7460     0.9230 c3         1 P11       0.119000
     53 C36         -8.6330    -3.5140     2.0300 c3         1 P11      -0.184400
     54 C34         -9.2090    -3.1940     3.3930 c          1 P11       0.598100
     55 O8         -10.3890    -3.4300     3.6640 o          1 P11      -0.591100
     56 N16         -8.3600    -2.6400     4.2800 ns         1 P11      -0.517900
     57 C37         -8.7620    -2.2580     5.6220 c3         1 P11       0.107000
     58 C38         -9.4540    -0.8910     5.6410 c3         1 P11      -0.140400
     59 C39        -10.1800    -0.5140     6.9230 c3         1 P11       0.108600
     60 N17         -9.2640    -0.1630     8.0780 nx         1 P11      -0.676000
     61 C40         -8.8490    -1.3520     8.8850 c3         1 P11       0.079900
     62 C41         -9.8910     0.8670     8.9650 c3         1 P11       0.079900
     63 H4           4.1970     1.0070     8.1240 h4         1 P11       0.038100
     64 H5           5.9930     1.2710    10.2080 h4         1 P11       0.160000
     65 H31          8.4240     3.7240     9.5410 h1         1 P11       0.065700
     66 H32A         9.1850     2.1950     9.0750 h1         1 P11       0.065700
     67 H33          8.1400     2.2610    10.5130 h1         1 P11       0.065700
     68 HN1          6.4020     3.0020     5.0680 hn         1 P11       0.349500
     69 H8           6.4560     3.7070     2.5480 ha         1 P11       0.129000
     70 H10          9.8070     5.0060     4.9610 h4         1 P11       0.177000
     71 H111        10.9360     5.6690     1.6580 h1         1 P11       0.063700
     72 H112        11.1630     6.0610     3.3740 h1         1 P11       0.063700
     73 H113        10.1880     7.1230     2.3340 h1         1 P11       0.063700
     74 HN4          7.0030     3.6460     0.3480 hn         1 P11       0.313500
     75 H131         7.1570     5.8300    -1.6340 h1         1 P11       0.072700
     76 H132         7.7180     4.2290    -2.1020 h1         1 P11       0.072700
     77 H141         5.4470     3.2910    -1.5140 hc         1 P11       0.063200
     78 H142         4.9020     4.9170    -1.1220 hc         1 P11       0.063200
     79 HN6          4.2360     2.8260    -3.2610 hn         1 P11       0.330500
     80 H19          4.4900     5.6390    -6.0660 h4         1 P11       0.190000
     81 H171         3.6850     5.8370    -8.3070 h1         1 P11       0.067700
     82 H172         2.0540     5.1580    -8.5130 h1         1 P11       0.067700
     83 H173         3.4520     4.3140    -9.1960 h1         1 P11       0.067700
     84 HN7          2.1030     0.7170    -6.1530 hn         1 P11       0.339500
     85 H211         0.0580     0.4240    -8.2300 h1         1 P11       0.072200
     86 H212         1.4260    -0.6680    -8.4130 h1         1 P11       0.072200
     87 H221         1.0880    -1.4970    -6.0770 hc         1 P11       0.066200
     88 H222        -0.2950    -0.4220    -5.8930 hc         1 P11       0.066200
     89 H10N        -1.9090    -1.8500    -5.6810 hn         1 P11       0.331500
     90 H27         -2.0250    -4.4710    -8.6770 h4         1 P11       0.191000
     91 H251        -3.5190    -6.2270    -9.3000 h1         1 P11       0.068033
     92 H252        -5.2260    -5.8970    -8.9230 h1         1 P11       0.068033
     93 H253        -4.3130    -7.0530    -7.9400 h1         1 P11       0.068033
     94 H11N        -5.3630    -3.7250    -4.4560 hn         1 P11       0.349500
     95 H30         -6.7500    -3.3270    -2.2810 ha         1 P11       0.125000
     96 H32         -8.3760    -6.2000    -5.0780 h4         1 P11       0.181000
     97 H331       -11.1650    -5.5380    -3.0050 h1         1 P11       0.064367
     98 H332       -10.4340    -6.7110    -4.1210 h1         1 P11       0.064367
     99 H333       -10.2950    -6.9370    -2.3630 h1         1 P11       0.064367
    100 H14N        -8.1480    -2.5570    -0.7950 hn         1 P11       0.320500
    101 H351       -10.4370    -2.9550     0.9840 h1         1 P11       0.065200
    102 H352        -9.2250    -1.6730     1.0520 h1         1 P11       0.065200
    103 H361        -8.7630    -4.5850     1.8620 hc         1 P11       0.077200
    104 H362        -7.5660    -3.2910     1.9870 hc         1 P11       0.077200
    105 H16N        -7.4170    -2.4400     3.9870 hn         1 P11       0.326500
    106 H371        -7.8620    -2.2600     6.2340 h1         1 P11       0.055200
    107 H372        -9.4390    -3.0210     6.0100 h1         1 P11       0.055200
    108 H381        -8.7390    -0.1070     5.3770 hc         1 P11       0.088700
    109 H382       -10.2170    -0.8930     4.8620 hc         1 P11       0.088700
    110 H391       -10.8360    -1.3080     7.2760 hx         1 P11       0.101700
    111 H392       -10.7800     0.3730     6.7390 hx         1 P11       0.101700
    112 H17N        -8.4210     0.2570     7.6800 hn         1 P11       0.498000
    113 H401        -9.7410    -1.7760     9.3380 hx         1 P11       0.100200
    114 H402        -8.1530    -1.0200     9.6500 hx         1 P11       0.100200
    115 H403        -8.3710    -2.0810     8.2400 hx         1 P11       0.100200
    116 H411        -9.2000     1.0920     9.7730 hx         1 P11       0.100200
    117 H412       -10.0900     1.7560     8.3740 hx         1 P11       0.100200
    118 H413       -10.8170     0.4550     9.3600 hx         1 P11       0.100200
    119 C6           8.1460     5.2940     0.6880 c          1 P11       0.641700
    120 C15          1.9740     2.1070    -7.6090 c          1 P11       0.540600
    121 C23         -5.6560    -5.0760    -5.9200 c          1 P11       0.543600
    122 C28         -9.3150    -4.2170    -1.0450 c          1 P11       0.640700
@<TRIPOS>BOND
     1     1     2 2   
     2     1     5 1   
     3     1     7 1   
     4     2     3 1   
     5     3     4 2   
     6     3    63 1   
     7     4     5 1   
     8     4    64 1   
     9     5     6 1   
    10     6    65 1   
    11     6    66 1   
    12     6    67 1   
    13     7     8 2   
    14     7     9 1   
    15     9    12 1   
    16     9    68 1   
    17    10    11 2   
    18    10    14 1   
    19    10   119 1   
    20    11    12 1   
    21    11    69 1   
    22    12    13 2   
    23    13    14 1   
    24    13    70 1   
    25    14    15 1   
    26    15    71 1   
    27    15    72 1   
    28    15    73 1   
    29    16   119 2   
    30    17    18 1   
    31    17    74 1   
    32    17   119 1   
    33    18    19 1   
    34    18    75 1   
    35    18    76 1   
    36    19    20 1   
    37    19    77 1   
    38    19    78 1   
    39    20    21 2   
    40    20    22 1   
    41    22    25 1   
    42    22    79 1   
    43    23    24 2   
    44    23    27 1   
    45    23   120 1   
    46    24    25 1   
    47    25    26 2   
    48    26    27 1   
    49    26    80 1   
    50    27    28 1   
    51    28    81 1   
    52    28    82 1   
    53    28    83 1   
    54    29   120 2   
    55    30    31 1   
    56    30    84 1   
    57    30   120 1   
    58    31    32 1   
    59    31    85 1   
    60    31    86 1   
    61    32    33 1   
    62    32    87 1   
    63    32    88 1   
    64    33    34 2   
    65    33    35 1   
    66    35    38 1   
    67    35    89 1   
    68    36    37 2   
    69    36    40 1   
    70    36   121 1   
    71    37    38 1   
    72    38    39 2   
    73    39    40 1   
    74    39    90 1   
    75    40    41 1   
    76    41    91 1   
    77    41    92 1   
    78    41    93 1   
    79    42   121 2   
    80    43    46 1   
    81    43    94 1   
    82    43   121 1   
    83    44    45 2   
    84    44    48 1   
    85    44   122 1   
    86    45    46 1   
    87    45    95 1   
    88    46    47 2   
    89    47    48 1   
    90    47    96 1   
    91    48    49 1   
    92    49    97 1   
    93    49    98 1   
    94    49    99 1   
    95    50   122 2   
    96    51    52 1   
    97    51   100 1   
    98    51   122 1   
    99    52    53 1   
   100    52   101 1   
   101    52   102 1   
   102    53    54 1   
   103    53   103 1   
   104    53   104 1   
   105    54    55 2   
   106    54    56 1   
   107    56    57 1   
   108    56   105 1   
   109    57    58 1   
   110    57   106 1   
   111    57   107 1   
   112    58    59 1   
   113    58   108 1   
   114    58   109 1   
   115    59    60 1   
   116    59   110 1   
   117    59   111 1   
   118    60    61 1   
   119    60    62 1   
   120    60   112 1   
   121    61   113 1   
   122    61   114 1   
   123    61   115 1   
   124    62   116 1   
   125    62   117 1   
   126    62   118 1   
@<TRIPOS>SUBSTRUCTURE
     1 P11         1 TEMP              0 ****  ****    0 ROOT
