@<TRIPOS>MOLECULE
P12
   52    53     1     0     0
SMALL
No Charge or Current Charge


@<TRIPOS>ATOM
      1 C5          -5.5320    -5.4250    -0.3040 ca         1 P12      -0.121000
      2 C4          -5.3460    -5.6470    -1.6840 ca         1 P12       0.153100
      3 C3          -4.0440    -5.7330    -2.1990 ca         1 P12      -0.083000
      4 C2          -2.9200    -5.6030    -1.3590 ca         1 P12      -0.160300
      5 C1          -3.1060    -5.3850     0.0280 ca         1 P12       0.083100
      6 C6          -4.4180    -5.2940     0.5450 ca         1 P12      -0.127000
      7 OA          -1.9940    -5.2830     0.8500 os         1 P12      -0.419100
      8 CB          -2.0950    -5.0260     2.2670 c3         1 P12       0.173600
      9 CG          -0.6770    -5.1310     2.8620 c3         1 P12      -0.115400
     10 CD          -0.0730    -6.5280     2.6680 c3         1 P12       0.107600
     11 NE           1.3280    -6.6280     3.1980 nz         1 P12      -0.978000
     12 CG1         -0.7280    -7.9750    -1.1980 c6         1 P12       0.084600
     13 CD1          0.2020    -8.7070    -0.1930 c6         1 P12       0.192300
     14 NE1          1.6340    -8.2580    -0.2290 nh         1 P12      -0.758600
     15 CD2          1.8740    -6.7910    -0.4250 c6         1 P12       0.192300
     16 CG2          0.9220    -6.1200    -1.4470 c6         1 P12       0.084600
     17 NB          -0.5430    -6.4530    -1.1460 nx         1 P12      -0.665000
     18 CA          -1.5350    -5.6810    -1.9870 c3         1 P12       0.171900
     19 NH1          2.6450    -8.7470     1.7470 n2         1 P12      -0.852100
     20 NH2          3.2340    -9.7570    -0.1990 nv         1 P12      -1.063200
     21 OA1         -6.4000    -5.7840    -2.5670 os         1 P12      -0.319100
     22 CB1         -7.7740    -5.7120    -2.1430 c3         1 P12       0.134900
     23 H5          -6.5270    -5.3510     0.1260 ha         1 P12       0.152000
     24 H3          -3.9110    -5.8980    -3.2660 ha         1 P12       0.149000
     25 H6          -4.5990    -5.1240     1.6030 ha         1 P12       0.134000
     26 HB1         -2.5050    -4.0240     2.4540 h1         1 P12       0.075200
     27 HB2         -2.7430    -5.7650     2.7570 h1         1 P12       0.075200
     28 HG1         -0.0360    -4.3760     2.3900 hc         1 P12       0.088700
     29 HG2         -0.7210    -4.8960     3.9320 hc         1 P12       0.088700
     30 HD1         -0.0520    -6.7530     1.5990 hx         1 P12       0.098200
     31 HD2         -0.7000    -7.2790     3.1620 hx         1 P12       0.098200
     32 HE1          1.8280    -7.4630     2.8180 hn         1 P12       0.521000
     33 HE2          1.3770    -6.7190     4.2250 hn         1 P12       0.521000
     34 HE3          1.9280    -5.8260     2.9600 hn         1 P12       0.521000
     35 HG11        -0.5050    -8.2960    -2.2200 hx         1 P12       0.108450
     36 HG12        -1.7800    -8.2030    -0.9960 hx         1 P12       0.108450
     37 HD11        -0.2050    -8.5870     0.8200 h1         1 P12       0.076700
     38 HD12         0.1470    -9.7830    -0.4130 h1         1 P12       0.076700
     39 HD21         2.9060    -6.6290    -0.7710 h1         1 P12       0.076700
     40 HD22         1.7850    -6.2620     0.5330 h1         1 P12       0.076700
     41 HG21         1.0440    -5.0320    -1.4360 hx         1 P12       0.108450
     42 HG22         1.1400    -6.4750    -2.4590 hx         1 P12       0.108450
     43 HB          -0.7650    -6.1310    -0.1760 hn         1 P12       0.488000
     44 HA1         -1.5810    -6.1410    -2.9780 hx         1 P12       0.101200
     45 HA2         -1.1500    -4.6660    -2.1150 hx         1 P12       0.101200
     46 HH11         3.4230    -9.3530     2.0370 hn         1 P12       0.421400
     47 HH21         3.2240   -10.6960     0.1730 hn         1 P12       0.471500
     48 HH22         2.9120    -9.7070    -1.1550 hn         1 P12       0.471500
     49 HB11        -8.0000    -6.4970    -1.4110 h1         1 P12       0.061367
     50 HB12        -8.4440    -5.8460    -3.0010 h1         1 P12       0.061367
     51 HB3         -7.9940    -4.7350    -1.6930 h1         1 P12       0.061367
     52 CZ           2.5140    -8.9360     0.5200 c2         1 P12       0.782100
@<TRIPOS>BOND
     1     1     2 ar  
     2     1     6 ar  
     3     1    23 1   
     4     2     3 ar  
     5     2    21 1   
     6     3     4 ar  
     7     3    24 1   
     8     4     5 ar  
     9     4    18 1   
    10     5     6 ar  
    11     5     7 1   
    12     6    25 1   
    13     7     8 1   
    14     8     9 1   
    15     8    26 1   
    16     8    27 1   
    17     9    10 1   
    18     9    28 1   
    19     9    29 1   
    20    10    11 1   
    21    10    30 1   
    22    10    31 1   
    23    11    32 1   
    24    11    33 1   
    25    11    34 1   
    26    12    13 1   
    27    12    17 1   
    28    12    35 1   
    29    12    36 1   
    30    13    14 1   
    31    13    37 1   
    32    13    38 1   
    33    14    15 1   
    34    14    52 1   
    35    15    16 1   
    36    15    39 1   
    37    15    40 1   
    38    16    17 1   
    39    16    41 1   
    40    16    42 1   
    41    17    18 1   
    42    17    43 1   
    43    18    44 1   
    44    18    45 1   
    45    19    46 1   
    46    19    52 2   
    47    20    47 1   
    48    20    48 1   
    49    20    52 1   
    50    21    22 1   
    51    22    49 1   
    52    22    50 1   
    53    22    51 1   
@<TRIPOS>SUBSTRUCTURE
     1 P12         1 TEMP              0 ****  ****    0 ROOT
