@<TRIPOS>MOLECULE
P12
   52    53     1     0     0
SMALL
bcc


@<TRIPOS>ATOM
      1 C5          -5.3850    -5.5380    -0.2390 ca         1 P12      -0.139000
      2 C4          -5.1070    -5.9370    -1.5390 ca         1 P12       0.153100
      3 C3          -3.7770    -5.9880    -1.9590 ca         1 P12      -0.101000
      4 C2          -2.7460    -5.6490    -1.1010 ca         1 P12      -0.160300
      5 C1          -3.0340    -5.2580     0.2140 ca         1 P12       0.083100
      6 C6          -4.3520    -5.2020     0.6330 ca         1 P12      -0.145000
      7 OA          -1.9600    -4.9700     0.9890 os         1 P12      -0.395900
      8 CB          -2.1780    -4.4400     2.2890 c3         1 P12       0.150400
      9 CG          -0.8380    -4.1210     2.9140 c3         1 P12      -0.115400
     10 CD           0.0030    -5.3610     3.1510 c3         1 P12       0.135800
     11 NE           1.2330    -5.0260     3.9120 nz         1 P12      -0.840600
     12 CG1         -0.9560    -8.1020    -1.2510 c6         1 P12       0.112800
     13 CD1         -0.1290    -9.1350    -0.5160 c6         1 P12       0.192300
     14 NE1          1.2750    -8.9340    -0.7890 nh         1 P12      -0.758600
     15 CD2          1.7230    -7.6160    -0.3940 c6         1 P12       0.192300
     16 CG2          0.9380    -6.5520    -1.1290 c6         1 P12       0.112800
     17 NB          -0.5230    -6.7230    -0.8820 nx         1 P12      -0.694400
     18 CA          -1.3270    -5.6620    -1.5730 c3         1 P12       0.200100
     19 NH1          1.6360   -11.1620    -0.3230 n2         1 P12      -0.852100
     20 NH2          3.4360    -9.7620    -0.9510 nv         1 P12      -0.952800
     21 OA1         -6.0350    -6.2880    -2.4520 os         1 P12      -0.295900
     22 CB1         -7.3950    -6.2620    -2.0680 c3         1 P12       0.111700
     23 H5          -6.3990    -5.4770     0.1280 ha         1 P12       0.170000
     24 H3          -3.5520    -6.2900    -2.9750 ha         1 P12       0.167000
     25 H6          -4.6120    -4.8980     1.6370 ha         1 P12       0.152000
     26 HB1         -2.7750    -3.5260     2.2270 h1         1 P12       0.075200
     27 HB2         -2.7250    -5.1600     2.9060 h1         1 P12       0.075200
     28 HG1         -0.2970    -3.4000     2.2980 hc         1 P12       0.088700
     29 HG2         -1.0450    -3.6370     3.8710 hc         1 P12       0.088700
     30 HD1          0.3390    -5.8210     2.2240 hx         1 P12       0.098200
     31 HD2         -0.5350    -6.1080     3.7310 hx         1 P12       0.098200
     32 HE1          1.7890    -5.8570     4.1100 hn         1 P12       0.465800
     33 HE2          1.0190    -4.5930     4.8110 hn         1 P12       0.465800
     34 HE3          1.8360    -4.3790     3.4030 hn         1 P12       0.465800
     35 HG11        -0.8360    -8.1920    -2.3310 hx         1 P12       0.108450
     36 HG12        -2.0090    -8.2040    -0.9990 hx         1 P12       0.108450
     37 HD11        -0.3450    -9.0950     0.5600 h1         1 P12       0.076700
     38 HD12        -0.4360   -10.1170    -0.8650 h1         1 P12       0.076700
     39 HD21         2.7730    -7.4620    -0.6250 h1         1 P12       0.076700
     40 HD22         1.6230    -7.4740     0.6930 h1         1 P12       0.076700
     41 HG21         1.2200    -5.5580    -0.7870 hx         1 P12       0.108450
     42 HG22         1.0910    -6.6170    -2.2060 hx         1 P12       0.108450
     43 HB          -0.6850    -6.6020     0.1210 hn         1 P12       0.432800
     44 HA1         -1.2550    -5.8550    -2.6420 hx         1 P12       0.101200
     45 HA2         -0.8310    -4.7130    -1.3680 hx         1 P12       0.101200
     46 HH11         2.3340   -11.8930    -0.4000 hn         1 P12       0.421400
     47 HH21         4.0240   -10.5770    -1.0230 hn         1 P12       0.416300
     48 HH22         3.6200    -9.1060    -1.6950 hn         1 P12       0.416300
     49 HB11        -7.5980    -6.9440    -1.2380 h1         1 P12       0.061367
     50 HB12        -7.9660    -6.5850    -2.9340 h1         1 P12       0.061367
     51 HB3         -7.7220    -5.2570    -1.7870 h1         1 P12       0.061367
     52 CZ           2.1160   -10.0330    -0.6770 c2         1 P12       0.782100
@<TRIPOS>BOND
     1     1     2 ar  
     2     1     6 ar  
     3     1    23 1   
     4     2     3 ar  
     5     2    21 1   
     6     3     4 ar  
     7     3    24 1   
     8     4     5 ar  
     9     4    18 1   
    10     5     6 ar  
    11     5     7 1   
    12     6    25 1   
    13     7     8 1   
    14     8     9 1   
    15     8    26 1   
    16     8    27 1   
    17     9    10 1   
    18     9    28 1   
    19     9    29 1   
    20    10    11 1   
    21    10    30 1   
    22    10    31 1   
    23    11    32 1   
    24    11    33 1   
    25    11    34 1   
    26    12    13 1   
    27    12    17 1   
    28    12    35 1   
    29    12    36 1   
    30    13    14 1   
    31    13    37 1   
    32    13    38 1   
    33    14    15 1   
    34    14    52 1   
    35    15    16 1   
    36    15    39 1   
    37    15    40 1   
    38    16    17 1   
    39    16    41 1   
    40    16    42 1   
    41    17    18 1   
    42    17    43 1   
    43    18    44 1   
    44    18    45 1   
    45    19    46 1   
    46    19    52 2   
    47    20    47 1   
    48    20    48 1   
    49    20    52 1   
    50    21    22 1   
    51    22    49 1   
    52    22    50 1   
    53    22    51 1   
@<TRIPOS>SUBSTRUCTURE
     1 P12         1 TEMP              0 ****  ****    0 ROOT
