@<TRIPOS>MOLECULE
P13
   63    66     1     0     0
SMALL
abcg2


@<TRIPOS>ATOM
      1 C1          -0.7500     5.1340    16.5550 ca         1 P13      -0.091000
      2 C2          -0.6260     3.8740    15.9700 cp         1 P13      -0.034000
      3 C3           0.5950     3.2120    16.1150 ca         1 P13      -0.091000
      4 C4           1.6630     3.7580    16.8160 ca         1 P13      -0.097300
      5 C5           1.5080     5.0230    17.3880 ca         1 P13       0.129100
      6 C6           0.3030     5.7000    17.2570 ca         1 P13      -0.141000
      7 N            6.1910     5.9010    20.3380 n8         1 P13      -0.999200
      8 CB           5.0210     5.3110    19.7010 c3         1 P13       0.148800
      9 CA           3.7750     6.1210    20.0280 c3         1 P13      -0.076400
     10 C            2.4990     5.5430    19.4580 c3         1 P13       0.166600
     11 O            2.5530     5.6080    18.0320 os         1 P13      -0.375100
     12 CA1          2.9430     2.9830    16.9660 c3         1 P13       0.206100
     13 NB           3.0330     2.3930    18.2920 n7         1 P13      -0.848400
     14 CG           4.2950     1.7230    18.5430 c3         1 P13       0.155800
     15 CD           4.5730     0.5120    17.6520 c3         1 P13       0.129800
     16 NE           3.4750    -0.4330    17.6690 n3         1 P13      -0.738600
     17 CH1          3.4010    -1.1880    18.9060 c6         1 P13       0.168300
     18 CI1          2.1740    -2.0810    18.9130 c6         1 P13       0.155800
     19 NJ           2.2180    -2.9740    17.7700 n7         1 P13      -0.863400
     20 CI2          2.2560    -2.2120    16.5350 c6         1 P13       0.155800
     21 CH2          3.4890    -1.3270    16.5270 c6         1 P13       0.168300
     22 N1          -4.9900     1.6860    13.2330 na         1 P13      -0.224700
     23 C21         -6.0190     2.1510    14.0020 cc         1 P13      -0.164100
     24 C31         -5.5260     2.8940    15.0350 cd         1 P13      -0.237200
     25 C41         -3.0550     3.4640    15.6240 ca         1 P13      -0.047000
     26 C51         -1.7430     3.2680    15.2160 cp         1 P13      -0.064000
     27 C61         -1.4830     2.4890    14.0670 ca         1 P13      -0.081000
     28 C71         -2.4950     1.9120    13.3280 ca         1 P13      -0.130000
     29 C81         -3.8060     2.1200    13.7510 ca         1 P13      -0.047200
     30 C91         -4.1030     2.8930    14.8960 ca         1 P13      -0.101800
     31 H1          -1.6680     5.6980    16.4440 ha         1 P13       0.115000
     32 H3           0.7200     2.2240    15.6850 ha         1 P13       0.112000
     33 H6           0.1940     6.6910    17.6810 ha         1 P13       0.121000
     34 HN1A         7.0030     5.3280    20.1420 hn         1 P13       0.388500
     35 HN2          6.3870     6.7960    19.9070 hn         1 P13       0.388500
     36 HB1          4.8920     4.2970    20.0880 h1         1 P13       0.035700
     37 HB2          5.1220     5.2130    18.6120 h1         1 P13       0.035700
     38 HA1          3.6590     6.1690    21.1140 hc         1 P13       0.052200
     39 HA2          3.8960     7.1550    19.6850 hc         1 P13       0.052200
     40 HC1          1.6350     6.1110    19.8250 h1         1 P13       0.039700
     41 HC2          2.3800     4.5010    19.7680 h1         1 P13       0.039700
     42 HA11         3.7990     3.6490    16.8360 h1         1 P13       0.039200
     43 HA12         2.9940     2.2420    16.1570 h1         1 P13       0.039200
     44 HB11         2.2930     1.7030    18.3800 hn         1 P13       0.421000
     45 HG1          4.3180     1.4300    19.5960 h1         1 P13       0.050200
     46 HG2          5.1070     2.4450    18.4170 h1         1 P13       0.050200
     47 HD1          5.5300     0.0530    17.9550 h1         1 P13       0.034700
     48 HD2          4.7120     0.8490    16.6210 h1         1 P13       0.034700
     49 HH11         4.3030    -1.8090    19.0520 h1         1 P13       0.037700
     50 HH12         3.3420    -0.5020    19.7540 h1         1 P13       0.037700
     51 HI11         1.2760    -1.4420    18.9170 h1         1 P13       0.037200
     52 HI12         2.1600    -2.6690    19.8330 h1         1 P13       0.037200
     53 HJ1          1.4080    -3.5790    17.7760 hn         1 P13       0.412000
     54 HI21         2.2940    -2.8970    15.6860 h1         1 P13       0.037200
     55 HI22         1.3680    -1.5720    16.4060 h1         1 P13       0.037200
     56 HH21         3.5020    -0.7330    15.6110 h1         1 P13       0.037700
     57 HH22         4.3900    -1.9650    16.5160 h1         1 P13       0.037700
     58 HN1         -5.0960     1.1160    12.4110 hn         1 P13       0.348000
     59 H2          -7.0400     1.9130    13.7490 h4         1 P13       0.211000
     60 H31         -6.1060     3.3870    15.7990 ha         1 P13       0.206000
     61 H4          -3.2700     4.0420    16.5150 ha         1 P13       0.117000
     62 H61         -0.4600     2.3560    13.7380 ha         1 P13       0.112000
     63 H7          -2.2720     1.3280    12.4440 ha         1 P13       0.113000
@<TRIPOS>BOND
     1     1     2 ar  
     2     1     6 ar  
     3     1    31 1   
     4     2     3 ar  
     5     2    26 1   
     6     3     4 ar  
     7     3    32 1   
     8     4     5 ar  
     9     4    12 1   
    10     5     6 ar  
    11     5    11 1   
    12     6    33 1   
    13     7     8 1   
    14     7    34 1   
    15     7    35 1   
    16     8     9 1   
    17     8    36 1   
    18     8    37 1   
    19     9    10 1   
    20     9    38 1   
    21     9    39 1   
    22    10    11 1   
    23    10    40 1   
    24    10    41 1   
    25    12    13 1   
    26    12    42 1   
    27    12    43 1   
    28    13    14 1   
    29    13    44 1   
    30    14    15 1   
    31    14    45 1   
    32    14    46 1   
    33    15    16 1   
    34    15    47 1   
    35    15    48 1   
    36    16    17 1   
    37    16    21 1   
    38    17    18 1   
    39    17    49 1   
    40    17    50 1   
    41    18    19 1   
    42    18    51 1   
    43    18    52 1   
    44    19    20 1   
    45    19    53 1   
    46    20    21 1   
    47    20    54 1   
    48    20    55 1   
    49    21    56 1   
    50    21    57 1   
    51    22    23 1   
    52    22    29 1   
    53    22    58 1   
    54    23    24 2   
    55    23    59 1   
    56    24    30 1   
    57    24    60 1   
    58    25    26 ar  
    59    25    30 ar  
    60    25    61 1   
    61    26    27 ar  
    62    27    28 ar  
    63    27    62 1   
    64    28    29 ar  
    65    28    63 1   
    66    29    30 ar  
@<TRIPOS>SUBSTRUCTURE
     1 P13         1 TEMP              0 ****  ****    0 ROOT
