@<TRIPOS>MOLECULE
P13
   63    66     1     0     0
SMALL
No Charge or Current Charge


@<TRIPOS>ATOM
      1 C1          -0.3360     4.8030    16.8860 ca         1 P13      -0.091000
      2 C2          -0.0860     3.4910    16.4180 cp         1 P13      -0.034000
      3 C3           1.2050     2.9510    16.6330 ca         1 P13      -0.091000
      4 C4           2.2160     3.6810    17.2910 ca         1 P13      -0.097300
      5 C5           1.9470     4.9920    17.7430 ca         1 P13       0.129100
      6 C6           0.6640     5.5460    17.5370 ca         1 P13      -0.141000
      7 N            5.7500     7.1500    21.3550 n8         1 P13      -0.999200
      8 CB           4.5120     6.6350    20.7360 c3         1 P13       0.148800
      9 CA           4.0800     7.4960    19.5310 c3         1 P13      -0.076400
     10 C            2.7580     7.0310    18.8900 c3         1 P13       0.166600
     11 O            2.9530     5.7020    18.3740 os         1 P13      -0.375100
     12 CA1          3.5780     3.0230    17.4850 c3         1 P13       0.206100
     13 NB           3.4580     1.8800    18.4090 n7         1 P13      -0.848400
     14 CG           4.5530     0.8900    18.3520 c3         1 P13       0.155800
     15 CD           4.3340    -0.0460    17.1280 c3         1 P13       0.129800
     16 NE           2.9220    -0.4960    16.9470 n3         1 P13      -0.738600
     17 CH1          2.4210    -1.3750    18.0550 c6         1 P13       0.168300
     18 CI1          0.9260    -1.7950    17.8520 c6         1 P13       0.155800
     19 NJ           0.6840    -2.4350    16.5270 n7         1 P13      -0.863400
     20 CI2          1.2000    -1.5800    15.4190 c6         1 P13       0.155800
     21 CH2          2.6940    -1.1630    15.6270 c6         1 P13       0.168300
     22 N1          -4.2760     0.5690    13.9350 na         1 P13      -0.224700
     23 C21         -5.4080     1.0230    14.6490 cc         1 P13      -0.164100
     24 C31         -4.8940     1.9330    15.5630 cd         1 P13      -0.237200
     25 C41         -2.5160     2.8150    16.1000 ca         1 P13      -0.047000
     26 C51         -1.1470     2.6970    15.7210 cp         1 P13      -0.064000
     27 C61         -0.8150     1.7980    14.6600 ca         1 P13      -0.081000
     28 C71         -1.8040     1.0370    13.9970 ca         1 P13      -0.130000
     29 C81         -3.1310     1.1900    14.4110 ca         1 P13      -0.047200
     30 C91         -3.4660     2.0450    15.4190 ca         1 P13      -0.101800
     31 H1          -1.3100     5.2580    16.7290 ha         1 P13       0.115000
     32 H3           1.4220     1.9400    16.2960 ha         1 P13       0.112000
     33 H6           0.4230     6.5520    17.8690 ha         1 P13       0.121000
     34 HN1A         6.0310     6.5190    22.1160 hn         1 P13       0.388500
     35 HN2          6.5200     7.0690    20.6800 hn         1 P13       0.388500
     36 HB1          3.7150     6.6340    21.4930 h1         1 P13       0.035700
     37 HB2          4.6840     5.5980    20.4130 h1         1 P13       0.035700
     38 HA1          3.9590     8.5360    19.8580 hc         1 P13       0.052200
     39 HA2          4.8690     7.4910    18.7690 hc         1 P13       0.052200
     40 HC1          2.4870     7.7230    18.0820 h1         1 P13       0.039700
     41 HC2          1.9610     7.0440    19.6450 h1         1 P13       0.039700
     42 HA11         4.3200     3.7420    17.8560 h1         1 P13       0.039200
     43 HA12         3.9260     2.6870    16.4980 h1         1 P13       0.039200
     44 HB11         2.6500     1.3350    18.0780 hn         1 P13       0.421000
     45 HG1          4.5370     0.2700    19.2590 h1         1 P13       0.050200
     46 HG2          5.5400     1.3690    18.2970 h1         1 P13       0.050200
     47 HD1          5.0040    -0.9120    17.2200 h1         1 P13       0.034700
     48 HD2          4.6520     0.5040    16.2310 h1         1 P13       0.034700
     49 HH11         3.0350    -2.2850    18.1200 h1         1 P13       0.037700
     50 HH12         2.5040    -0.8640    19.0240 h1         1 P13       0.037700
     51 HI11         0.2950    -0.8980    17.9370 h1         1 P13       0.037200
     52 HI12         0.6260    -2.4850    18.6540 h1         1 P13       0.037200
     53 HJ1         -0.3260    -2.5760    16.4000 hn         1 P13       0.412000
     54 HI21         1.0970    -2.1140    14.4630 h1         1 P13       0.037200
     55 HI22         0.5860    -0.6700    15.3540 h1         1 P13       0.037200
     56 HH21         2.9860    -0.4900    14.8070 h1         1 P13       0.037700
     57 HH22         3.3250    -2.0610    15.5440 h1         1 P13       0.037700
     58 HN1         -4.2930    -0.1120    13.1820 hn         1 P13       0.348000
     59 H2          -6.4220     0.6800    14.4570 h4         1 P13       0.211000
     60 H31         -5.4940     2.4840    16.2850 ha         1 P13       0.206000
     61 H4          -2.8230     3.4740    16.9070 ha         1 P13       0.117000
     62 H61          0.2190     1.6990    14.3390 ha         1 P13       0.112000
     63 H7          -1.5400     0.3570    13.1910 ha         1 P13       0.113000
@<TRIPOS>BOND
     1     1     2 ar  
     2     1     6 ar  
     3     1    31 1   
     4     2     3 ar  
     5     2    26 1   
     6     3     4 ar  
     7     3    32 1   
     8     4     5 ar  
     9     4    12 1   
    10     5     6 ar  
    11     5    11 1   
    12     6    33 1   
    13     7     8 1   
    14     7    34 1   
    15     7    35 1   
    16     8     9 1   
    17     8    36 1   
    18     8    37 1   
    19     9    10 1   
    20     9    38 1   
    21     9    39 1   
    22    10    11 1   
    23    10    40 1   
    24    10    41 1   
    25    12    13 1   
    26    12    42 1   
    27    12    43 1   
    28    13    14 1   
    29    13    44 1   
    30    14    15 1   
    31    14    45 1   
    32    14    46 1   
    33    15    16 1   
    34    15    47 1   
    35    15    48 1   
    36    16    17 1   
    37    16    21 1   
    38    17    18 1   
    39    17    49 1   
    40    17    50 1   
    41    18    19 1   
    42    18    51 1   
    43    18    52 1   
    44    19    20 1   
    45    19    53 1   
    46    20    21 1   
    47    20    54 1   
    48    20    55 1   
    49    21    56 1   
    50    21    57 1   
    51    22    23 1   
    52    22    29 1   
    53    22    58 1   
    54    23    24 2   
    55    23    59 1   
    56    24    30 1   
    57    24    60 1   
    58    25    26 ar  
    59    25    30 ar  
    60    25    61 1   
    61    26    27 ar  
    62    27    28 ar  
    63    27    62 1   
    64    28    29 ar  
    65    28    63 1   
    66    29    30 ar  
@<TRIPOS>SUBSTRUCTURE
     1 P13         1 TEMP              0 ****  ****    0 ROOT
