@<TRIPOS>MOLECULE
P14
   56    56     1     0     0
SMALL
abcg2


@<TRIPOS>ATOM
      1 C1           3.2950    -4.6610    -4.2450 ca         1 P14       0.069100
      2 C2           2.7840    -3.9550    -3.1440 ca         1 P14      -0.073300
      3 C3           3.4680    -4.0070    -1.9440 ca         1 P14      -0.090000
      4 C4           4.6540    -4.7340    -1.8040 ca         1 P14       0.141100
      5 C5           5.1560    -5.4140    -2.9020 ca         1 P14      -0.152000
      6 C6           4.4750    -5.3740    -4.1190 ca         1 P14      -0.144000
      7 OA           2.5650    -4.5800    -5.3830 os         1 P14      -0.382100
      8 CB           3.0070    -5.2500    -6.5400 c3         1 P14       0.151600
      9 CG           1.9260    -5.1130    -7.5870 c3         1 P14       0.055600
     10 ND           0.7250    -5.8100    -7.1680 nu         1 P14      -0.863000
     11 CE          -0.5250    -5.4420    -7.4120 cz         1 P14       0.930600
     12 NZ1         -0.8020    -4.3800    -8.1510 nv         1 P14      -0.614800
     13 NZ2         -1.5230    -6.1290    -6.8570 nv         1 P14      -0.614800
     14 CA           1.5200    -3.1480    -3.2710 c3         1 P14       0.210100
     15 NB           0.3300    -3.9860    -3.3020 n7         1 P14      -0.842400
     16 CG1         -0.8770    -3.1890    -3.4230 c3         1 P14       0.152800
     17 CD          -2.1230    -4.0550    -3.5100 c3         1 P14      -0.080400
     18 CE1         -3.3860    -3.2060    -3.5710 c3         1 P14      -0.111400
     19 CZ          -4.6790    -3.9980    -3.7070 c3         1 P14       0.058600
     20 NH          -4.7960    -4.6890    -4.9820 nu         1 P14      -0.871000
     21 CI          -4.5590    -5.9660    -5.2250 cz         1 P14       0.911600
     22 NJ1         -4.1280    -6.7940    -4.2870 nv         1 P14      -0.614300
     23 NJ2         -4.7100    -6.4260    -6.4760 nv         1 P14      -0.614300
     24 O1           5.2290    -4.7100    -0.5820 os         1 P14      -0.327100
     25 C11          6.4360    -5.4190    -0.4000 c3         1 P14       0.139900
     26 H3           3.0800    -3.4640    -1.0890 ha         1 P14       0.144000
     27 H5           6.0730    -5.9840    -2.8480 ha         1 P14       0.136000
     28 H6           4.9000    -5.9140    -4.9550 ha         1 P14       0.115000
     29 HB1          3.9320    -4.8100    -6.9270 h1         1 P14       0.069200
     30 HB2          3.2040    -6.3090    -6.3390 h1         1 P14       0.069200
     31 HG1          1.7080    -4.0560    -7.7410 h1         1 P14       0.086700
     32 HG2          2.2950    -5.5180    -8.5310 h1         1 P14       0.086700
     33 HD           0.8540    -6.7160    -6.7420 hn         1 P14       0.373000
     34 HZ11        -0.1080    -3.9240    -8.7180 hn         1 P14       0.371250
     35 HZ12        -1.7530    -4.0750    -8.2710 hn         1 P14       0.371250
     36 HZ21        -2.4570    -6.0660    -7.2330 hn         1 P14       0.371250
     37 HZ22        -1.3230    -6.9520    -6.3120 hn         1 P14       0.371250
     38 HA1          1.4410    -2.4880    -2.4040 h1         1 P14       0.050200
     39 HA2          1.5900    -2.4900    -4.1500 h1         1 P14       0.050200
     40 HB11         0.3910    -4.6060    -4.1020 hn         1 P14       0.386000
     41 HG11        -0.8490    -2.5120    -4.2940 h1         1 P14       0.043200
     42 HG12        -0.9480    -2.5430    -2.5410 h1         1 P14       0.043200
     43 HD1         -2.1610    -4.7220    -2.6430 hc         1 P14       0.029700
     44 HD2         -2.0500    -4.6940    -4.3970 hc         1 P14       0.029700
     45 HE1         -3.3190    -2.4960    -4.4010 hc         1 P14       0.081700
     46 HE2         -3.4670    -2.6070    -2.6600 hc         1 P14       0.081700
     47 HZ1         -5.5320    -3.3250    -3.6390 h1         1 P14       0.089700
     48 HZ2         -4.7950    -4.7120    -2.8900 h1         1 P14       0.089700
     49 HH          -5.0740    -4.1230    -5.7690 hn         1 P14       0.370000
     50 HJ11        -3.9220    -6.4920    -3.3510 hn         1 P14       0.377250
     51 HJ12        -4.0400    -7.7800    -4.4710 hn         1 P14       0.377250
     52 HJ21        -4.7210    -7.4220    -6.6280 hn         1 P14       0.377250
     53 HJ22        -5.2790    -5.8990    -7.1200 hn         1 P14       0.377250
     54 H11          7.2350    -5.0400    -1.0440 h1         1 P14       0.051700
     55 H12          6.3160    -6.4900    -0.5850 h1         1 P14       0.051700
     56 H13          6.7280    -5.2760     0.6380 h1         1 P14       0.051700
@<TRIPOS>BOND
     1     1     2 ar  
     2     1     6 ar  
     3     1     7 1   
     4     2     3 ar  
     5     2    14 1   
     6     3     4 ar  
     7     3    26 1   
     8     4     5 ar  
     9     4    24 1   
    10     5     6 ar  
    11     5    27 1   
    12     6    28 1   
    13     7     8 1   
    14     8     9 1   
    15     8    29 1   
    16     8    30 1   
    17     9    10 1   
    18     9    31 1   
    19     9    32 1   
    20    10    11 2   
    21    10    33 1   
    22    11    12 1   
    23    11    13 1   
    24    12    34 1   
    25    12    35 1   
    26    13    36 1   
    27    13    37 1   
    28    14    15 1   
    29    14    38 1   
    30    14    39 1   
    31    15    16 1   
    32    15    40 1   
    33    16    17 1   
    34    16    41 1   
    35    16    42 1   
    36    17    18 1   
    37    17    43 1   
    38    17    44 1   
    39    18    19 1   
    40    18    45 1   
    41    18    46 1   
    42    19    20 1   
    43    19    47 1   
    44    19    48 1   
    45    20    21 2   
    46    20    49 1   
    47    21    22 1   
    48    21    23 1   
    49    22    50 1   
    50    22    51 1   
    51    23    52 1   
    52    23    53 1   
    53    24    25 1   
    54    25    54 1   
    55    25    55 1   
    56    25    56 1   
@<TRIPOS>SUBSTRUCTURE
     1 P14         1 TEMP              0 ****  ****    0 ROOT
