@<TRIPOS>MOLECULE
P14
   56    56     1     0     0
SMALL
No Charge or Current Charge


@<TRIPOS>ATOM
      1 C1           3.2990    -4.6170    -4.6150 ca         1 P14       0.069100
      2 C2           2.4590    -4.1340    -3.5840 ca         1 P14      -0.073300
      3 C3           2.7810    -4.4160    -2.2400 ca         1 P14      -0.090000
      4 C4           3.9160    -5.1720    -1.9100 ca         1 P14       0.141100
      5 C5           4.7490    -5.6570    -2.9390 ca         1 P14      -0.152000
      6 C6           4.4430    -5.3800    -4.2830 ca         1 P14      -0.144000
      7 OA           2.9800    -4.3250    -5.9290 os         1 P14      -0.382100
      8 CB           3.7870    -4.7630    -7.0420 c3         1 P14       0.151600
      9 CG           3.1350    -4.2470    -8.3480 c3         1 P14       0.055600
     10 ND           1.7370    -4.7280    -8.4940 nu         1 P14      -0.863000
     11 CE           0.9290    -4.6340    -9.5270 cz         1 P14       0.930600
     12 NZ1          1.3050    -4.0280   -10.6150 nv         1 P14      -0.614800
     13 NZ2         -0.2620    -5.1480    -9.4470 nv         1 P14      -0.614800
     14 CA           1.2160    -3.2970    -3.8860 c3         1 P14       0.210100
     15 NB          -0.0020    -3.9560    -3.3710 n7         1 P14      -0.842400
     16 CG1         -1.2600    -3.2300    -3.6180 c3         1 P14       0.152800
     17 CD          -2.4480    -4.0120    -3.0220 c3         1 P14      -0.080400
     18 CE1         -3.8060    -3.3010    -3.2400 c3         1 P14      -0.111400
     19 CZ          -5.0090    -4.0250    -2.6000 c3         1 P14       0.058600
     20 NH          -5.3000    -5.2880    -3.3150 nu         1 P14      -0.871000
     21 CI          -5.1880    -6.5300    -2.8930 cz         1 P14       0.911600
     22 NJ1         -4.4470    -6.8210    -1.8640 nv         1 P14      -0.614300
     23 NJ2         -5.7340    -7.4820    -3.5890 nv         1 P14      -0.614300
     24 O1           4.1680    -5.4100    -0.5730 os         1 P14      -0.327100
     25 C11          5.3040    -6.1730    -0.1280 c3         1 P14       0.139900
     26 H3           2.1420    -4.0450    -1.4440 ha         1 P14       0.144000
     27 H5           5.6350    -6.2460    -2.7170 ha         1 P14       0.136000
     28 H6           5.1060    -5.7670    -5.0510 ha         1 P14       0.115000
     29 HB1          4.8070    -4.3640    -6.9680 h1         1 P14       0.069200
     30 HB2          3.8440    -5.8590    -7.0760 h1         1 P14       0.069200
     31 HG1          3.1620    -3.1470    -8.3380 h1         1 P14       0.086700
     32 HG2          3.7510    -4.5870    -9.1940 h1         1 P14       0.086700
     33 HD           1.3200    -5.0940    -7.6440 hn         1 P14       0.373000
     34 HZ11         2.2120    -3.5980   -10.6780 hn         1 P14       0.371250
     35 HZ12         0.6980    -3.9280   -11.4110 hn         1 P14       0.371250
     36 HZ21        -0.9090    -5.1120   -10.2170 hn         1 P14       0.371250
     37 HZ22        -0.5530    -5.6750    -8.6410 hn         1 P14       0.371250
     38 HA1          1.3410    -2.3110    -3.4170 h1         1 P14       0.050200
     39 HA2          1.1220    -3.1240    -4.9670 h1         1 P14       0.050200
     40 HB11        -0.0690    -4.8760    -3.8190 hn         1 P14       0.386000
     41 HG11        -1.4220    -3.0980    -4.6970 h1         1 P14       0.043200
     42 HG12        -1.2220    -2.2320    -3.1600 h1         1 P14       0.043200
     43 HD1         -2.2840    -4.1510    -1.9460 hc         1 P14       0.029700
     44 HD2         -2.4830    -5.0100    -3.4770 hc         1 P14       0.029700
     45 HE1         -3.9880    -3.1700    -4.3140 hc         1 P14       0.081700
     46 HE2         -3.7460    -2.2930    -2.8100 hc         1 P14       0.081700
     47 HZ1         -5.8850    -3.3620    -2.6640 h1         1 P14       0.089700
     48 HZ2         -4.8170    -4.1880    -1.5290 h1         1 P14       0.089700
     49 HH          -5.7210    -5.1810    -4.2320 hn         1 P14       0.370000
     50 HJ11        -3.9010    -6.1100    -1.4100 hn         1 P14       0.377250
     51 HJ12        -4.2960    -7.7700    -1.5640 hn         1 P14       0.377250
     52 HJ21        -5.6680    -8.4480    -3.3120 hn         1 P14       0.377250
     53 HJ22        -6.3400    -7.2810    -4.3670 hn         1 P14       0.377250
     54 H11          6.2410    -5.7000    -0.4470 h1         1 P14       0.051700
     55 H12          5.2700    -7.1940    -0.5290 h1         1 P14       0.051700
     56 H13          5.3130    -6.2390     0.9670 h1         1 P14       0.051700
@<TRIPOS>BOND
     1     1     2 ar  
     2     1     6 ar  
     3     1     7 1   
     4     2     3 ar  
     5     2    14 1   
     6     3     4 ar  
     7     3    26 1   
     8     4     5 ar  
     9     4    24 1   
    10     5     6 ar  
    11     5    27 1   
    12     6    28 1   
    13     7     8 1   
    14     8     9 1   
    15     8    29 1   
    16     8    30 1   
    17     9    10 1   
    18     9    31 1   
    19     9    32 1   
    20    10    11 2   
    21    10    33 1   
    22    11    12 1   
    23    11    13 1   
    24    12    34 1   
    25    12    35 1   
    26    13    36 1   
    27    13    37 1   
    28    14    15 1   
    29    14    38 1   
    30    14    39 1   
    31    15    16 1   
    32    15    40 1   
    33    16    17 1   
    34    16    41 1   
    35    16    42 1   
    36    17    18 1   
    37    17    43 1   
    38    17    44 1   
    39    18    19 1   
    40    18    45 1   
    41    18    46 1   
    42    19    20 1   
    43    19    47 1   
    44    19    48 1   
    45    20    21 2   
    46    20    49 1   
    47    21    22 1   
    48    21    23 1   
    49    22    50 1   
    50    22    51 1   
    51    23    52 1   
    52    23    53 1   
    53    24    25 1   
    54    25    54 1   
    55    25    55 1   
    56    25    56 1   
@<TRIPOS>SUBSTRUCTURE
     1 P14         1 TEMP              0 ****  ****    0 ROOT
