@<TRIPOS>MOLECULE
P15
   48    47     1     0     0
SMALL
No Charge or Current Charge


@<TRIPOS>ATOM
      1 C13         -8.8740     0.6940    -1.0860 c3         1 P15       0.145900
      2 O6          -7.9150     0.1020    -0.1950 os         1 P15      -0.443000
      3 C12         -7.0630     1.0510     0.4810 c3         1 P15       0.158600
      4 C11         -6.0790     0.2860     1.3980 c3         1 P15       0.162600
      5 O5          -5.1010    -0.3880     0.5810 os         1 P15      -0.437000
      6 C10         -4.1250    -1.1470     1.3230 c3         1 P15       0.162600
      7 C9          -3.1350    -1.8040     0.3310 c3         1 P15       0.162600
      8 O4          -2.2810    -0.7850    -0.2260 os         1 P15      -0.439000
      9 C8          -1.3140    -1.2720    -1.1790 c3         1 P15       0.161600
     10 C7          -0.4610    -0.0840    -1.6860 c3         1 P15       0.162600
     11 O3           0.4260     0.3420    -0.6330 os         1 P15      -0.439000
     12 C6           1.2720     1.4560    -0.9790 c3         1 P15       0.162600
     13 C5           2.1760     1.8000     0.2290 c3         1 P15       0.161600
     14 O2           3.1750     0.7720     0.3780 os         1 P15      -0.438000
     15 C4           4.0780     0.9720     1.4840 c3         1 P15       0.162600
     16 C3           5.0980    -0.1910     1.5220 c3         1 P15       0.161600
     17 O1           6.0230    -0.0440     0.4260 os         1 P15      -0.435000
     18 C2           7.0210    -1.0820     0.3450 c3         1 P15       0.160600
     19 C1           7.9540    -0.8030    -0.8640 c3         1 P15       0.163600
     20 OXT          8.7660     0.3690    -0.6520 oh         1 P15      -0.709000
     21 H131        -8.3710     1.2650    -1.8780 h1         1 P15       0.027033
     22 H132        -9.4840    -0.0850    -1.5610 h1         1 P15       0.027033
     23 H133        -9.5470     1.3710    -0.5430 h1         1 P15       0.027033
     24 H121        -6.4980     1.6570    -0.2400 h1         1 P15       0.029200
     25 H122        -7.6660     1.7300     1.0980 h1         1 P15       0.029200
     26 H111        -5.5850     1.0060     2.0640 h1         1 P15       0.027200
     27 H112        -6.6350    -0.4280     2.0190 h1         1 P15       0.027200
     28 H101        -3.5730    -0.5040     2.0220 h1         1 P15       0.028200
     29 H102        -4.6200    -1.9360     1.9030 h1         1 P15       0.028200
     30 H91         -2.5350    -2.5480     0.8720 h1         1 P15       0.028700
     31 H92         -3.6950    -2.3240    -0.4570 h1         1 P15       0.028700
     32 H81         -0.6590    -2.0270    -0.7260 h1         1 P15       0.028700
     33 H82         -1.8250    -1.7320    -2.0350 h1         1 P15       0.028700
     34 H71          0.1170    -0.4120    -2.5600 h1         1 P15       0.029200
     35 H72         -1.1220     0.7340    -2.0010 h1         1 P15       0.029200
     36 H61          1.8980     1.2220    -1.8510 h1         1 P15       0.028700
     37 H62          0.6610     2.3350    -1.2250 h1         1 P15       0.028700
     38 H51          2.6560     2.7710     0.0470 h1         1 P15       0.028700
     39 H52          1.5610     1.8880     1.1340 h1         1 P15       0.028700
     40 H41          4.6120     1.9270     1.3900 h1         1 P15       0.028200
     41 H42          3.5210     0.9850     2.4300 h1         1 P15       0.028200
     42 H31          5.6360    -0.1590     2.4790 h1         1 P15       0.027700
     43 H32          4.5640    -1.1490     1.4630 h1         1 P15       0.027700
     44 H21          7.6180    -1.1260     1.2660 h1         1 P15       0.026200
     45 H22          6.5420    -2.0600     0.2040 h1         1 P15       0.026200
     46 H11          8.5970    -1.6800    -1.0150 h1         1 P15       0.025200
     47 H12          7.3410    -0.6880    -1.7680 h1         1 P15       0.025200
     48 HOXT         9.2810     0.5140    -1.4800 ho         1 P15       0.499000
@<TRIPOS>BOND
     1     1     2 1   
     2     1    21 1   
     3     1    22 1   
     4     1    23 1   
     5     2     3 1   
     6     3     4 1   
     7     3    24 1   
     8     3    25 1   
     9     4     5 1   
    10     4    26 1   
    11     4    27 1   
    12     5     6 1   
    13     6     7 1   
    14     6    28 1   
    15     6    29 1   
    16     7     8 1   
    17     7    30 1   
    18     7    31 1   
    19     8     9 1   
    20     9    10 1   
    21     9    32 1   
    22     9    33 1   
    23    10    11 1   
    24    10    34 1   
    25    10    35 1   
    26    11    12 1   
    27    12    13 1   
    28    12    36 1   
    29    12    37 1   
    30    13    14 1   
    31    13    38 1   
    32    13    39 1   
    33    14    15 1   
    34    15    16 1   
    35    15    40 1   
    36    15    41 1   
    37    16    17 1   
    38    16    42 1   
    39    16    43 1   
    40    17    18 1   
    41    18    19 1   
    42    18    44 1   
    43    18    45 1   
    44    19    20 1   
    45    19    46 1   
    46    19    47 1   
    47    20    48 1   
@<TRIPOS>SUBSTRUCTURE
     1 P15         1 TEMP              0 ****  ****    0 ROOT
