@<TRIPOS>MOLECULE
P15
   48    47     1     0     0
SMALL
abcg2


@<TRIPOS>ATOM
      1 C13         -8.3780     1.0150    -1.1030 c3         1 P15       0.145900
      2 O6          -7.5290     0.2380    -0.2990 os         1 P15      -0.443000
      3 C12         -6.7430     1.0190     0.5640 c3         1 P15       0.158600
      4 C11         -5.8430     0.1280     1.3820 c3         1 P15       0.162600
      5 O5          -4.9000    -0.4880     0.5440 os         1 P15      -0.437000
      6 C10         -4.0250    -1.3420     1.2350 c3         1 P15       0.162600
      7 C9          -3.0230    -1.9230     0.2720 c3         1 P15       0.162600
      8 O4          -2.1880    -0.9020    -0.2130 os         1 P15      -0.439000
      9 C8          -1.2610    -1.3600    -1.1640 c3         1 P15       0.161600
     10 C7          -0.4180    -0.2080    -1.6460 c3         1 P15       0.162600
     11 O3           0.3980     0.2510    -0.5990 os         1 P15      -0.439000
     12 C6           1.1220     1.4070    -0.9330 c3         1 P15       0.162600
     13 C5           2.0220     1.7930     0.2130 c3         1 P15       0.161600
     14 O2           3.0270     0.8240     0.3720 os         1 P15      -0.438000
     15 C4           3.9000     1.1130     1.4340 c3         1 P15       0.162600
     16 C3           4.9490     0.0360     1.5330 c3         1 P15       0.161600
     17 O1           5.7640     0.0590     0.3900 os         1 P15      -0.435000
     18 C2           6.7490    -0.9440     0.4060 c3         1 P15       0.160600
     19 C1           7.5670    -0.8840    -0.8580 c3         1 P15       0.163600
     20 OXT          8.2920     0.3240    -0.8960 oh         1 P15      -0.709000
     21 H131        -7.8180     1.6970    -1.7550 h1         1 P15       0.027033
     22 H132        -8.9600     0.3410    -1.7310 h1         1 P15       0.027033
     23 H133        -9.0740     1.6190    -0.5080 h1         1 P15       0.027033
     24 H121        -6.1360     1.7430     0.0010 h1         1 P15       0.029200
     25 H122        -7.3710     1.6000     1.2540 h1         1 P15       0.029200
     26 H111        -5.3500     0.7490     2.1440 h1         1 P15       0.027200
     27 H112        -6.4440    -0.6190     1.9210 h1         1 P15       0.027200
     28 H101        -3.5020    -0.8060     2.0400 h1         1 P15       0.028200
     29 H102        -4.5700    -2.1710     1.7080 h1         1 P15       0.028200
     30 H91         -2.4420    -2.6920     0.7990 h1         1 P15       0.028700
     31 H92         -3.5460    -2.4300    -0.5520 h1         1 P15       0.028700
     32 H81         -0.6180    -2.1470    -0.7440 h1         1 P15       0.028700
     33 H82         -1.7720    -1.7990    -2.0330 h1         1 P15       0.028700
     34 H71          0.1870    -0.5560    -2.4950 h1         1 P15       0.029200
     35 H72         -1.0660     0.5940    -2.0260 h1         1 P15       0.029200
     36 H61          1.7230     1.2530    -1.8410 h1         1 P15       0.028700
     37 H62          0.4470     2.2500    -1.1380 h1         1 P15       0.028700
     38 H51          2.4540     2.7780    -0.0090 h1         1 P15       0.028700
     39 H52          1.4310     1.9040     1.1330 h1         1 P15       0.028700
     40 H41          4.3790     2.0930     1.2970 h1         1 P15       0.028200
     41 H42          3.3610     1.1560     2.3900 h1         1 P15       0.028200
     42 H31          5.5390     0.2110     2.4440 h1         1 P15       0.027700
     43 H32          4.4670    -0.9460     1.6540 h1         1 P15       0.027700
     44 H21          7.4050    -0.8370     1.2830 h1         1 P15       0.026200
     45 H22          6.2940    -1.9420     0.4720 h1         1 P15       0.026200
     46 H11          8.2290    -1.7600    -0.8590 h1         1 P15       0.025200
     47 H12          6.9020    -0.9880    -1.7250 h1         1 P15       0.025200
     48 HOXT         8.8020     0.3400    -1.7110 ho         1 P15       0.499000
@<TRIPOS>BOND
     1     1     2 1   
     2     1    21 1   
     3     1    22 1   
     4     1    23 1   
     5     2     3 1   
     6     3     4 1   
     7     3    24 1   
     8     3    25 1   
     9     4     5 1   
    10     4    26 1   
    11     4    27 1   
    12     5     6 1   
    13     6     7 1   
    14     6    28 1   
    15     6    29 1   
    16     7     8 1   
    17     7    30 1   
    18     7    31 1   
    19     8     9 1   
    20     9    10 1   
    21     9    32 1   
    22     9    33 1   
    23    10    11 1   
    24    10    34 1   
    25    10    35 1   
    26    11    12 1   
    27    12    13 1   
    28    12    36 1   
    29    12    37 1   
    30    13    14 1   
    31    13    38 1   
    32    13    39 1   
    33    14    15 1   
    34    15    16 1   
    35    15    40 1   
    36    15    41 1   
    37    16    17 1   
    38    16    42 1   
    39    16    43 1   
    40    17    18 1   
    41    18    19 1   
    42    18    44 1   
    43    18    45 1   
    44    19    20 1   
    45    19    46 1   
    46    19    47 1   
    47    20    48 1   
@<TRIPOS>SUBSTRUCTURE
     1 P15         1 TEMP              0 ****  ****    0 ROOT
