@<TRIPOS>MOLECULE
P16
   45    48     1     0     0
SMALL
abcg2


@<TRIPOS>ATOM
      1 O1           0.1090     1.3290    -8.7810 oh         1 P16      -0.652000
      2 C2           0.7510     0.1630    -8.3050 c3         1 P16       0.207900
      3 C3           0.0220    -0.3030    -7.0770 ca         1 P16      -0.059300
      4 C4          -1.1330    -1.0730    -7.1880 ca         1 P16      -0.110000
      5 C5          -1.8120    -1.4540    -6.0440 ca         1 P16      -0.091000
      6 C6          -1.3720    -1.0830    -4.7800 ca         1 P16      -0.121000
      7 C7          -0.2170    -0.3090    -4.6580 ca         1 P16       0.305000
      8 N9           0.3320     0.1360    -3.4570 nu         1 P16      -0.914900
      9 C10         -0.0110    -0.0780    -2.1660 ca         1 P16       0.432900
     10 N11         -1.0710    -0.8420    -1.8750 nb         1 P16      -0.250000
     11 C12         -1.3360    -1.0060    -0.5970 ca         1 P16       0.205900
     12 C13         -0.5820    -0.4350     0.4210 ca         1 P16      -0.293800
     13 C16         -0.8300    -0.5940     1.8090 cc         1 P16      -0.020200
     14 C17         -0.0260     0.0050     2.7090 cd         1 P16      -0.162400
     15 C18          1.0950     0.8390     2.2900 c          1 P16       0.584200
     16 O21          1.8170     1.4050     3.0920 o          1 P16      -0.520000
     17 N19          1.3060     0.9610     0.9190 n          1 P16      -0.360300
     18 C14          0.5050     0.3510    -0.0030 ca         1 P16       0.311900
     19 N15          0.7830     0.5250    -1.2810 nb         1 P16      -0.311000
     20 C20          2.4170     1.7740     0.4390 c3         1 P16       0.081300
     21 C22         -0.2310    -0.1370     4.1630 ca         1 P16      -0.019800
     22 C27          0.5530    -1.0070     4.9190 ca         1 P16       0.145000
     23 CL28         1.7890    -1.9180     4.1230 cl         1 P16      -0.189000
     24 C26          0.3730    -1.1720     6.2810 ca         1 P16      -0.105500
     25 C25         -0.6180    -0.4430     6.9200 ca         1 P16      -0.089000
     26 C24         -1.4130     0.4400     6.2090 ca         1 P16      -0.105500
     27 C23         -1.2080     0.5840     4.8460 ca         1 P16       0.145000
     28 CL29        -2.1940     1.7050     3.9730 cl         1 P16      -0.189000
     29 C8           0.4640     0.0730    -5.8190 ca         1 P16      -0.145000
     30 HO1          0.5670     1.6110    -9.5790 ho         1 P16       0.441000
     31 H21          1.8020     0.3550    -8.0580 h1         1 P16       0.024700
     32 H22          0.7400    -0.6340    -9.0570 h1         1 P16       0.024700
     33 H4          -1.4930    -1.3750    -8.1640 ha         1 P16       0.118000
     34 H5          -2.7080    -2.0580    -6.1250 ha         1 P16       0.116000
     35 H6          -1.9190    -1.3950    -3.9060 ha         1 P16       0.150000
     36 HN9          1.1520     0.7170    -3.5530 hn         1 P16       0.512000
     37 H12         -2.1930    -1.6240    -0.3500 h4         1 P16       0.028100
     38 H16         -1.6660    -1.2040     2.1310 ha         1 P16       0.196000
     39 H201         2.9470     2.1810     1.2910 h1         1 P16       0.059700
     40 H202         3.0990     1.1690    -0.1530 h1         1 P16       0.059700
     41 H203         2.0490     2.5910    -0.1780 h1         1 P16       0.059700
     42 H26          0.9950    -1.8600     6.8370 ha         1 P16       0.134000
     43 H25         -0.7700    -0.5640     7.9840 ha         1 P16       0.123000
     44 H24         -2.1830     1.0120     6.7090 ha         1 P16       0.134000
     45 H8           1.3630     0.6750    -5.7320 ha         1 P16       0.112000
@<TRIPOS>BOND
     1     1     2 1   
     2     1    30 1   
     3     2     3 1   
     4     2    31 1   
     5     2    32 1   
     6     3     4 ar  
     7     3    29 ar  
     8     4     5 ar  
     9     4    33 1   
    10     5     6 ar  
    11     5    34 1   
    12     6     7 ar  
    13     6    35 1   
    14     7     8 1   
    15     7    29 ar  
    16     8     9 1   
    17     8    36 1   
    18     9    10 ar  
    19     9    19 ar  
    20    10    11 ar  
    21    11    12 ar  
    22    11    37 1   
    23    12    13 1   
    24    12    18 ar  
    25    13    14 2   
    26    13    38 1   
    27    14    15 1   
    28    14    21 1   
    29    15    16 2   
    30    15    17 1   
    31    17    18 1   
    32    17    20 1   
    33    18    19 ar  
    34    20    39 1   
    35    20    40 1   
    36    20    41 1   
    37    21    22 ar  
    38    21    27 ar  
    39    22    23 1   
    40    22    24 ar  
    41    24    25 ar  
    42    24    42 1   
    43    25    26 ar  
    44    25    43 1   
    45    26    27 ar  
    46    26    44 1   
    47    27    28 1   
    48    29    45 1   
@<TRIPOS>SUBSTRUCTURE
     1 P16         1 TEMP              0 ****  ****    0 ROOT
