@<TRIPOS>MOLECULE
P16
   45    48     1     0     0
SMALL
No Charge or Current Charge


@<TRIPOS>ATOM
      1 O1          -0.7140     1.7710    -8.5940 oh         1 P16      -0.652000
      2 C2           0.1990     0.6860    -8.3940 c3         1 P16       0.207900
      3 C3          -0.1850    -0.1090    -7.1510 ca         1 P16      -0.059300
      4 C4          -1.0480    -1.2160    -7.2540 ca         1 P16      -0.110000
      5 C5          -1.3910    -1.9530    -6.1090 ca         1 P16      -0.091000
      6 C6          -0.8790    -1.5820    -4.8540 ca         1 P16      -0.121000
      7 C7          -0.0280    -0.4660    -4.7320 ca         1 P16       0.305000
      8 N9           0.5190    -0.0650    -3.5070 nu         1 P16      -0.914900
      9 C10          0.1380    -0.1890    -2.1800 ca         1 P16       0.432900
     10 N11         -1.0740    -0.6930    -1.8940 nb         1 P16      -0.250000
     11 C12         -1.3930    -0.7750    -0.5900 ca         1 P16       0.205900
     12 C13         -0.5050    -0.3520     0.4140 ca         1 P16      -0.293800
     13 C16         -0.8630    -0.4430     1.8200 cc         1 P16      -0.020200
     14 C17          0.0680    -0.0360     2.7610 cd         1 P16      -0.162400
     15 C18          1.3690     0.5950     2.3580 c          1 P16       0.584200
     16 O21          2.1320     1.0880     3.1810 o          1 P16      -0.520000
     17 N19          1.6660     0.6180     0.9770 n          1 P16      -0.360300
     18 C14          0.7300     0.1590     0.0040 ca         1 P16       0.311900
     19 N15          1.0520     0.2460    -1.3030 nb         1 P16      -0.311000
     20 C20          2.9730     1.1740     0.5250 c3         1 P16       0.081300
     21 C22         -0.2930    -0.0570     4.2000 ca         1 P16      -0.019800
     22 C27          0.5210    -0.7470     5.1350 ca         1 P16       0.145000
     23 Cl28         1.9160    -1.7020     4.6210 cl         1 P16      -0.189000
     24 C26          0.1820    -0.7720     6.4990 ca         1 P16      -0.105500
     25 C25         -0.9670    -0.1120     6.9570 ca         1 P16      -0.089000
     26 C24         -1.7860     0.5690     6.0440 ca         1 P16      -0.105500
     27 C23         -1.4600     0.5950     4.6770 ca         1 P16       0.145000
     28 Cl29        -2.5010     1.5430     3.6100 cl         1 P16      -0.189000
     29 C8           0.3240     0.2550    -5.8880 ca         1 P16      -0.145000
     30 HO1         -0.4180     2.2430    -9.4030 ho         1 P16       0.441000
     31 H21          1.2230     1.0670    -8.2780 h1         1 P16       0.024700
     32 H22          0.1940     0.0200    -9.2670 h1         1 P16       0.024700
     33 H4          -1.4480    -1.5080    -8.2230 ha         1 P16       0.118000
     34 H5          -2.0490    -2.8150    -6.1950 ha         1 P16       0.116000
     35 H6          -1.1350    -2.1780    -3.9850 ha         1 P16       0.150000
     36 HN9          1.3480     0.5190    -3.6030 hn         1 P16       0.512000
     37 H12         -2.3740    -1.1830    -0.3500 h4         1 P16       0.028100
     38 H16         -1.8190    -0.8550     2.1360 ha         1 P16       0.196000
     39 H201         3.6860     1.2660     1.3530 h1         1 P16       0.059700
     40 H202         3.4230     0.5140    -0.2270 h1         1 P16       0.059700
     41 H203         2.8160     2.1660     0.0820 h1         1 P16       0.059700
     42 H26          0.8080    -1.3180     7.2010 ha         1 P16       0.134000
     43 H25         -1.2250    -0.1320     8.0140 ha         1 P16       0.123000
     44 H24         -2.6740     1.0870     6.3960 ha         1 P16       0.134000
     45 H8           0.9870     1.1110    -5.8060 ha         1 P16       0.112000
@<TRIPOS>BOND
     1     1     2 1   
     2     1    30 1   
     3     2     3 1   
     4     2    31 1   
     5     2    32 1   
     6     3     4 ar  
     7     3    29 ar  
     8     4     5 ar  
     9     4    33 1   
    10     5     6 ar  
    11     5    34 1   
    12     6     7 ar  
    13     6    35 1   
    14     7     8 1   
    15     7    29 ar  
    16     8     9 1   
    17     8    36 1   
    18     9    10 ar  
    19     9    19 ar  
    20    10    11 ar  
    21    11    12 ar  
    22    11    37 1   
    23    12    13 1   
    24    12    18 ar  
    25    13    14 2   
    26    13    38 1   
    27    14    15 1   
    28    14    21 1   
    29    15    16 2   
    30    15    17 1   
    31    17    18 1   
    32    17    20 1   
    33    18    19 ar  
    34    20    39 1   
    35    20    40 1   
    36    20    41 1   
    37    21    22 ar  
    38    21    27 ar  
    39    22    23 1   
    40    22    24 ar  
    41    24    25 ar  
    42    24    42 1   
    43    25    26 ar  
    44    25    43 1   
    45    26    27 ar  
    46    26    44 1   
    47    27    28 1   
    48    29    45 1   
@<TRIPOS>SUBSTRUCTURE
     1 P16         1 TEMP              0 ****  ****    0 ROOT
