@<TRIPOS>MOLECULE
P17
   45    48     1     0     0
SMALL
bcc


@<TRIPOS>ATOM
      1 S2           2.3590    -0.6740     6.4650 ss         1 P17      -0.235000
      2 C3           0.6610    -0.3210     6.1510 ca         1 P17       0.063900
      3 C8           0.3140    -0.1910     4.8040 ca         1 P17      -0.141000
      4 C7          -1.0010     0.0880     4.4470 ca         1 P17       0.185600
      5 N9          -1.4540     0.2590     3.1420 nu         1 P17      -0.723300
      6 C10         -0.8450     0.1120     1.9410 ca         1 P17       0.957900
      7 N15         -1.6180     0.4060     0.8960 nb         1 P17      -0.836000
      8 C14         -1.0850     0.2780    -0.3040 ca         1 P17       0.639200
      9 N19         -1.8560     0.5840    -1.3880 n          1 P17      -0.427300
     10 C20         -3.2220     1.0370    -1.1550 c3         1 P17       0.081300
     11 C18         -1.3850     0.4850    -2.6930 c          1 P17       0.726700
     12 O21         -2.0900     0.7780    -3.6430 o          1 P17      -0.595500
     13 C17         -0.0130     0.0160    -2.8610 cc         1 P17      -0.161400
     14 C22          0.4780    -0.0970    -4.2480 ca         1 P17      -0.019800
     15 C27          0.1160    -1.1740    -5.0550 ca         1 P17       0.053400
     16 C26          0.5720    -1.3110    -6.3550 ca         1 P17      -0.123500
     17 C25          1.4170    -0.3430    -6.8750 ca         1 P17      -0.107000
     18 C24          1.7960     0.7470    -6.1100 ca         1 P17      -0.123500
     19 C23          1.3210     0.8570    -4.8120 ca         1 P17       0.053400
     20 CL2         -0.9340    -2.3850    -4.4080 cl         1 P17      -0.096900
     21 C16          0.7610    -0.2820    -1.8000 cd         1 P17       0.028800
     22 C13          0.2410    -0.1560    -0.4860 ca         1 P17      -0.422400
     23 C12          0.9440    -0.4300     0.6830 ca         1 P17       0.534200
     24 N11          0.4260    -0.3020     1.8860 nb         1 P17      -0.772000
     25 C6          -1.9660     0.2350     5.4530 ca         1 P17      -0.190000
     26 C5          -1.6070     0.1050     6.7790 ca         1 P17      -0.085000
     27 C4          -0.2960    -0.1740     7.1470 ca         1 P17      -0.167000
     28 C1           2.4620    -0.7250     8.2620 c3         1 P17      -0.030000
     29 H10          1.0680    -0.3050     4.0410 ha         1 P17       0.177000
     30 H1          -2.4180     0.5470     3.0600 hn         1 P17       0.456800
     31 H4          -3.6900     1.2470    -2.1080 h1         1 P17       0.059700
     32 H5          -3.7910     0.2680    -0.6370 h1         1 P17       0.059700
     33 H6          -3.2210     1.9400    -0.5480 h1         1 P17       0.059700
     34 H7           0.2730    -2.1590    -6.9540 ha         1 P17       0.152000
     35 H8           1.7820    -0.4390    -7.8890 ha         1 P17       0.141000
     36 H9           2.4510     1.5040    -6.5180 ha         1 P17       0.152000
     37 H3           1.7810    -0.6220    -1.9350 ha         1 P17       0.147000
     38 H2           1.9730    -0.7680     0.6250 h4         1 P17       0.030100
     39 H16         -2.9940     0.4520     5.1890 ha         1 P17       0.132000
     40 H15         -2.3610     0.2210     7.5470 ha         1 P17       0.132000
     41 H14         -0.0460    -0.2730     8.1940 ha         1 P17       0.135000
     42 H11          3.5060    -0.9270     8.4950 h1         1 P17       0.065700
     43 H12          2.1840     0.2270     8.7100 h1         1 P17       0.065700
     44 H13          1.8530    -1.5240     8.6800 h1         1 P17       0.065700
     45 CL1          1.7820     2.2370    -3.8770 cl         1 P17      -0.096900
@<TRIPOS>BOND
     1     1     2 1   
     2     1    28 1   
     3     2     3 ar  
     4     2    27 ar  
     5     3     4 ar  
     6     3    29 1   
     7     4     5 1   
     8     4    25 ar  
     9     5     6 1   
    10     5    30 1   
    11     6     7 ar  
    12     6    24 ar  
    13     7     8 ar  
    14     8     9 1   
    15     8    22 ar  
    16     9    10 1   
    17     9    11 1   
    18    10    31 1   
    19    10    32 1   
    20    10    33 1   
    21    11    12 2   
    22    11    13 1   
    23    13    14 1   
    24    13    21 2   
    25    14    15 ar  
    26    14    19 ar  
    27    15    16 ar  
    28    15    20 1   
    29    16    17 ar  
    30    16    34 1   
    31    17    18 ar  
    32    17    35 1   
    33    18    19 ar  
    34    18    36 1   
    35    19    45 1   
    36    21    22 1   
    37    21    37 1   
    38    22    23 ar  
    39    23    24 ar  
    40    23    38 1   
    41    25    26 ar  
    42    25    39 1   
    43    26    27 ar  
    44    26    40 1   
    45    27    41 1   
    46    28    42 1   
    47    28    43 1   
    48    28    44 1   
@<TRIPOS>SUBSTRUCTURE
     1 P17         1 TEMP              0 ****  ****    0 ROOT
