@<TRIPOS>MOLECULE
P17
   45    48     1     0     0
SMALL
No Charge or Current Charge


@<TRIPOS>ATOM
      1 S2           2.4830    -0.1200     6.5680 ss         1 P17      -0.156000
      2 C3           0.7270    -0.1670     6.1890 ca         1 P17      -0.063000
      3 C8           0.3340     0.0420     4.8540 ca         1 P17      -0.123000
      4 C7          -1.0260     0.0160     4.4860 ca         1 P17       0.324000
      5 N9          -1.4580     0.2330     3.1730 nu         1 P17      -0.916900
      6 C10         -0.8960     0.0580     1.9180 ca         1 P17       0.431900
      7 N15         -1.6450     0.5300     0.9110 nb         1 P17      -0.310000
      8 C14         -1.1530     0.3760    -0.3350 ca         1 P17       0.310900
      9 N19         -1.9150     0.8700    -1.4470 n          1 P17      -0.360300
     10 C20         -3.2220     1.5340    -1.1830 c3         1 P17       0.081300
     11 C18         -1.4620     0.7420    -2.7850 c          1 P17       0.584200
     12 O21         -2.1090     1.1610    -3.7360 o          1 P17      -0.520000
     13 C17         -0.1510     0.0690    -2.9670 cc         1 P17      -0.161400
     14 C22          0.4430    -0.1320    -4.2890 ca         1 P17      -0.019800
     15 C27          0.1640    -1.3020    -5.0280 ca         1 P17       0.145000
     16 C26          0.7290    -1.4910    -6.3000 ca         1 P17      -0.105500
     17 C25          1.5760    -0.5140    -6.8490 ca         1 P17      -0.089000
     18 C24          1.8550     0.6560    -6.1220 ca         1 P17      -0.105500
     19 C23          1.2900     0.8470    -4.8490 ca         1 P17       0.145000
     20 Cl2         -0.8990    -2.5480    -4.3720 cl         1 P17      -0.188500
     21 C16          0.5870    -0.4060    -1.9070 cd         1 P17      -0.021200
     22 C13          0.0790    -0.2530    -0.5510 ca         1 P17      -0.291800
     23 C12          0.7820    -0.7180     0.5740 ca         1 P17       0.205900
     24 N11          0.2910    -0.5640     1.8160 nb         1 P17      -0.246000
     25 C6          -1.9970    -0.1970     5.4770 ca         1 P17      -0.172000
     26 C5          -1.6170    -0.4080     6.8130 ca         1 P17      -0.067000
     27 C4          -0.2590    -0.3970     7.1700 ca         1 P17      -0.149000
     28 C1           2.6150    -0.4420     8.3830 c3         1 P17       0.017900
     29 H10          1.0950     0.2430     4.1100 ha         1 P17       0.159000
     30 H1          -2.4360     0.5120     3.1090 hn         1 P17       0.512000
     31 H4          -3.7070     1.8760    -2.1050 h1         1 P17       0.059700
     32 H5          -3.8980     0.8300    -0.6800 h1         1 P17       0.059700
     33 H6          -3.0670     2.4050    -0.5340 h1         1 P17       0.059700
     34 H7           0.5090    -2.3960    -6.8610 ha         1 P17       0.134000
     35 H8           2.0130    -0.6610    -7.8350 ha         1 P17       0.123000
     36 H9           2.5080     1.4160    -6.5440 ha         1 P17       0.134000
     37 H3           1.5440    -0.8940    -2.0840 ha         1 P17       0.197000
     38 H2           1.7450    -1.2180     0.4810 h4         1 P17       0.030100
     39 H16         -3.0510    -0.2090     5.2140 ha         1 P17       0.114000
     40 H15         -2.3770    -0.5790     7.5730 ha         1 P17       0.114000
     41 H14          0.0050    -0.5620     8.2100 ha         1 P17       0.117000
     42 H11          3.6720    -0.4300     8.6790 h1         1 P17       0.065700
     43 H12          2.0790     0.3360     8.9400 h1         1 P17       0.065700
     44 H13          2.1900    -1.4250     8.6180 h1         1 P17       0.065700
     45 Cl1          1.6590     2.3300    -3.9660 cl         1 P17      -0.188500
@<TRIPOS>BOND
     1     1     2 1   
     2     1    28 1   
     3     2     3 ar  
     4     2    27 ar  
     5     3     4 ar  
     6     3    29 1   
     7     4     5 1   
     8     4    25 ar  
     9     5     6 1   
    10     5    30 1   
    11     6     7 ar  
    12     6    24 ar  
    13     7     8 ar  
    14     8     9 1   
    15     8    22 ar  
    16     9    10 1   
    17     9    11 1   
    18    10    31 1   
    19    10    32 1   
    20    10    33 1   
    21    11    12 2   
    22    11    13 1   
    23    13    14 1   
    24    13    21 2   
    25    14    15 ar  
    26    14    19 ar  
    27    15    16 ar  
    28    15    20 1   
    29    16    17 ar  
    30    16    34 1   
    31    17    18 ar  
    32    17    35 1   
    33    18    19 ar  
    34    18    36 1   
    35    19    45 1   
    36    21    22 1   
    37    21    37 1   
    38    22    23 ar  
    39    23    24 ar  
    40    23    38 1   
    41    25    26 ar  
    42    25    39 1   
    43    26    27 ar  
    44    26    40 1   
    45    27    41 1   
    46    28    42 1   
    47    28    43 1   
    48    28    44 1   
@<TRIPOS>SUBSTRUCTURE
     1 P17         1 TEMP              0 ****  ****    0 ROOT
