@<TRIPOS>MOLECULE
P18
   21    21     1     0     0
SMALL
No Charge or Current Charge


@<TRIPOS>ATOM
      1 O            0.9850    -1.8360    -0.0160 o          1 P18      -0.530100
      2 C            0.7070    -0.6410    -0.0090 c          1 P18       0.585700
      3 C1           1.8240     0.4130    -0.0120 c3         1 P18      -0.183400
      4 C2           3.2530    -0.1540    -0.0250 c3         1 P18       0.170600
      5 C3          -0.7440    -0.1910     0.0030 ca         1 P18      -0.176600
      6 C8          -1.7770    -1.1590     0.0060 ca         1 P18      -0.063500
      7 C7          -3.1270    -0.7690     0.0170 ca         1 P18      -0.125000
      8 C4          -1.1040     1.1800     0.0120 ca         1 P18      -0.063500
      9 C5          -2.4570     1.5630     0.0230 ca         1 P18      -0.125000
     10 C6          -3.4690     0.5910     0.0250 ca         1 P18      -0.082000
     11 OXT          4.1840     0.9320    -0.0270 oh         1 P18      -0.669000
     12 H11C         1.6480     1.0860    -0.8580 hc         1 P18       0.076200
     13 H12C         1.6600     1.0790     0.8420 hc         1 P18       0.076200
     14 H21C         3.4040    -0.7860     0.8610 h1         1 P18       0.031700
     15 H22C         3.3920    -0.7780    -0.9180 h1         1 P18       0.031700
     16 HXT          5.0850     0.5360    -0.0350 ho         1 P18       0.447000
     17 H8          -1.5380    -2.2210    -0.0000 ha         1 P18       0.125000
     18 H4          -0.3500     1.9630     0.0100 ha         1 P18       0.125000
     19 H7          -3.9090    -1.5250     0.0190 ha         1 P18       0.117500
     20 H6          -4.5150     0.8920     0.0340 ha         1 P18       0.115000
     21 H5          -2.7200     2.6180     0.0290 ha         1 P18       0.117500
@<TRIPOS>BOND
     1     1     2 2   
     2     2     3 1   
     3     2     5 1   
     4     3     4 1   
     5     3    12 1   
     6     3    13 1   
     7     4    11 1   
     8     4    14 1   
     9     4    15 1   
    10     5     6 ar  
    11     5     8 ar  
    12     6     7 ar  
    13     6    17 1   
    14     7    10 ar  
    15     7    19 1   
    16     8     9 ar  
    17     8    18 1   
    18     9    10 ar  
    19     9    21 1   
    20    10    20 1   
    21    11    16 1   
@<TRIPOS>SUBSTRUCTURE
     1 P18         1 TEMP              0 ****  ****    0 ROOT
