@<TRIPOS>MOLECULE
P18
   21    21     1     0     0
SMALL
abcg2


@<TRIPOS>ATOM
      1 O            0.9690    -1.8080    -0.0180 o          1 P18      -0.530100
      2 C            0.6980    -0.6240    -0.0080 c          1 P18       0.585700
      3 C1           1.7800     0.4240    -0.0060 c3         1 P18      -0.183400
      4 C2           3.1800    -0.1590    -0.0280 c3         1 P18       0.170600
      5 C3          -0.7250    -0.1770     0.0040 ca         1 P18      -0.176600
      6 C8          -1.7340    -1.1420     0.0100 ca         1 P18      -0.063500
      7 C7          -3.0660    -0.7640     0.0190 ca         1 P18      -0.125000
      8 C4          -1.0780     1.1720     0.0080 ca         1 P18      -0.063500
      9 C5          -2.4120     1.5500     0.0170 ca         1 P18      -0.125000
     10 C6          -3.4080     0.5840     0.0220 ca         1 P18      -0.082000
     11 OXT          4.0890     0.9200    -0.0220 oh         1 P18      -0.669000
     12 H11C         1.6350     1.0840    -0.8680 hc         1 P18       0.076200
     13 H12C         1.6530     1.0600     0.8770 hc         1 P18       0.076200
     14 H21C         3.3240    -0.8090     0.8420 h1         1 P18       0.031700
     15 H22C         3.3060    -0.7850    -0.9190 h1         1 P18       0.031700
     16 HXT          4.9800     0.5580    -0.0340 ho         1 P18       0.447000
     17 H8          -1.4760    -2.1920     0.0060 ha         1 P18       0.125000
     18 H4          -0.3200     1.9430     0.0040 ha         1 P18       0.125000
     19 H7          -3.8400    -1.5200     0.0250 ha         1 P18       0.117500
     20 H6          -4.4500     0.8770     0.0300 ha         1 P18       0.115000
     21 H5          -2.6720     2.6000     0.0190 ha         1 P18       0.117500
@<TRIPOS>BOND
     1     1     2 2   
     2     2     3 1   
     3     2     5 1   
     4     3     4 1   
     5     3    12 1   
     6     3    13 1   
     7     4    11 1   
     8     4    14 1   
     9     4    15 1   
    10     5     6 ar  
    11     5     8 ar  
    12     6     7 ar  
    13     6    17 1   
    14     7    10 ar  
    15     7    19 1   
    16     8     9 ar  
    17     8    18 1   
    18     9    10 ar  
    19     9    21 1   
    20    10    20 1   
    21    11    16 1   
@<TRIPOS>SUBSTRUCTURE
     1 P18         1 TEMP              0 ****  ****    0 ROOT
