@<TRIPOS>MOLECULE
P19
   37    40     1     0     0
SMALL
No Charge or Current Charge


@<TRIPOS>ATOM
      1 N01          1.5720    -3.3310     0.1720 nc         1 P19      -0.608100
      2 C02          0.6300    -4.2520     0.3810 cd         1 P19       0.414500
      3 C03         -0.6790    -3.6950     0.4460 cd         1 P19      -0.412600
      4 C04         -0.5440    -2.3570     0.2670 cc         1 P19       0.197500
      5 N05          0.7850    -2.1890     0.1040 na         1 P19      -0.164600
      6 N06         -1.4990    -1.4050     0.2600 nc         1 P19      -0.257000
      7 C07         -0.9880    -0.1920     0.0610 cd         1 P19       0.440900
      8 N08          0.3600     0.1310    -0.0910 nd         1 P19      -0.352000
      9 C09          1.2310    -0.8810    -0.0880 cc         1 P19       0.615400
     10 N10          2.5770    -0.6830    -0.2210 nu         1 P19      -0.924900
     11 C11          3.3920     0.4470    -0.2560 ca         1 P19       0.300000
     12 C12          4.6490     0.3990     0.3690 ca         1 P19      -0.140000
     13 C13          5.5010     1.5190     0.3450 ca         1 P19      -0.084500
     14 C14          5.0990     2.6910    -0.3160 ca         1 P19      -0.127000
     15 C15          3.8480     2.7420    -0.9540 ca         1 P19      -0.084500
     16 C16          2.9990     1.6210    -0.9260 ca         1 P19      -0.140000
     17 N17         -1.7900     0.9100     0.0590 nu         1 P19      -0.919900
     18 C18         -3.1730     1.1280     0.0430 ca         1 P19       0.312000
     19 C19         -4.0970     0.1540    -0.3900 ca         1 P19      -0.148500
     20 C20         -5.4760     0.4310    -0.3990 ca         1 P19      -0.083500
     21 C21         -5.9420     1.6880     0.0200 ca         1 P19      -0.137000
     22 C22         -5.0300     2.6690     0.4390 ca         1 P19      -0.083500
     23 C23         -3.6520     2.3880     0.4450 ca         1 P19      -0.148500
     24 H02          0.9170    -5.2920     0.4820 h4         1 P19       0.046800
     25 H03         -1.6010    -4.2390     0.6130 ha         1 P19       0.229000
     26 HN10         3.0480    -1.5670    -0.0280 hn         1 P19       0.536000
     27 H12          4.9680    -0.5040     0.8830 ha         1 P19       0.131500
     28 H13          6.4710     1.4760     0.8360 ha         1 P19       0.116500
     29 H14          5.7570     3.5570    -0.3370 ha         1 P19       0.118000
     30 H15          3.5390     3.6460    -1.4740 ha         1 P19       0.116500
     31 H16          2.0440     1.6660    -1.4390 ha         1 P19       0.131500
     32 HN17        -1.2370     1.7630     0.1200 hn         1 P19       0.510000
     33 H19         -3.7590    -0.8140    -0.7420 ha         1 P19       0.131000
     34 H20         -6.1810    -0.3270    -0.7350 ha         1 P19       0.113000
     35 H21         -7.0090     1.9030     0.0130 ha         1 P19       0.115000
     36 H22         -5.3890     3.6450     0.7580 ha         1 P19       0.113000
     37 H23         -2.9550     3.1540     0.7720 ha         1 P19       0.131000
@<TRIPOS>BOND
     1     1     2 2   
     2     1     5 1   
     3     2     3 1   
     4     2    24 1   
     5     3     4 2   
     6     3    25 1   
     7     4     5 1   
     8     4     6 1   
     9     5     9 1   
    10     6     7 2   
    11     7     8 1   
    12     7    17 1   
    13     8     9 2   
    14     9    10 1   
    15    10    11 1   
    16    10    26 1   
    17    11    12 ar  
    18    11    16 ar  
    19    12    13 ar  
    20    12    27 1   
    21    13    14 ar  
    22    13    28 1   
    23    14    15 ar  
    24    14    29 1   
    25    15    16 ar  
    26    15    30 1   
    27    16    31 1   
    28    17    18 1   
    29    17    32 1   
    30    18    19 ar  
    31    18    23 ar  
    32    19    20 ar  
    33    19    33 1   
    34    20    21 ar  
    35    20    34 1   
    36    21    22 ar  
    37    21    35 1   
    38    22    23 ar  
    39    22    36 1   
    40    23    37 1   
@<TRIPOS>SUBSTRUCTURE
     1 P19         1 TEMP              0 ****  ****    0 ROOT
