@<TRIPOS>MOLECULE
P19
   37    40     1     0     0
SMALL
bcc


@<TRIPOS>ATOM
      1 N01          1.5110    -3.2090     0.2220 nc         1 P19      -0.608100
      2 C02          0.6260    -4.1840     0.3030 cd         1 P19       0.414500
      3 C03         -0.7030    -3.7320     0.2790 cd         1 P19      -0.362600
      4 C04         -0.5980    -2.3580     0.1730 cc         1 P19       0.460500
      5 N05          0.7530    -2.1030     0.1430 na         1 P19      -0.164600
      6 N06         -1.4890    -1.3550     0.1050 nc         1 P19      -0.783000
      7 C07         -0.9690    -0.1560     0.0080 cd         1 P19       0.966900
      8 N08          0.3550     0.1520    -0.0300 nd         1 P19      -0.878000
      9 C09          1.2120    -0.8230     0.0390 cc         1 P19       0.878400
     10 N10          2.5410    -0.6830     0.0200 nu         1 P19      -0.731300
     11 C11          3.3260     0.4730    -0.0720 ca         1 P19       0.161600
     12 C12          4.7080     0.2810     0.0100 ca         1 P19      -0.158000
     13 C13          5.5720     1.3580    -0.0760 ca         1 P19      -0.102500
     14 C14          5.0760     2.6450    -0.2430 ca         1 P19      -0.145000
     15 C15          3.7040     2.8320    -0.3250 ca         1 P19      -0.102500
     16 C16          2.8230     1.7620    -0.2410 ca         1 P19      -0.158000
     17 N17         -1.7520     0.9480    -0.0670 nu         1 P19      -0.726300
     18 C18         -3.1350     1.1060    -0.0530 ca         1 P19       0.173600
     19 C19         -4.0610     0.0650     0.0400 ca         1 P19      -0.166500
     20 C20         -5.4210     0.3550     0.0470 ca         1 P19      -0.101500
     21 C21         -5.8840     1.6590    -0.0360 ca         1 P19      -0.155000
     22 C22         -4.9610     2.6930    -0.1300 ca         1 P19      -0.101500
     23 C23         -3.6050     2.4220    -0.1390 ca         1 P19      -0.166500
     24 H02          0.9680    -5.2060     0.3780 h4         1 P19       0.046800
     25 H03         -1.6040    -4.3170     0.3320 ha         1 P19       0.179000
     26 HN10         3.0540    -1.5520     0.1030 hn         1 P19       0.480800
     27 H12          5.1050    -0.7190     0.1410 ha         1 P19       0.149500
     28 H13          6.6380     1.1880    -0.0110 ha         1 P19       0.134500
     29 H14          5.7510     3.4870    -0.3090 ha         1 P19       0.136000
     30 H15          3.3020     3.8280    -0.4580 ha         1 P19       0.134500
     31 H16          1.7610     1.9330    -0.3080 ha         1 P19       0.149500
     32 HN17        -1.2220     1.8040    -0.1410 hn         1 P19       0.454800
     33 H19         -3.7320    -0.9580     0.1050 ha         1 P19       0.149000
     34 H20         -6.1250    -0.4640     0.1190 ha         1 P19       0.131000
     35 H21         -6.9460     1.8670    -0.0290 ha         1 P19       0.133000
     36 H22         -5.2950     3.7210    -0.1970 ha         1 P19       0.131000
     37 H23         -2.8970     3.2400    -0.2120 ha         1 P19       0.149000
@<TRIPOS>BOND
     1     1     2 2   
     2     1     5 1   
     3     2     3 1   
     4     2    24 1   
     5     3     4 2   
     6     3    25 1   
     7     4     5 1   
     8     4     6 1   
     9     5     9 1   
    10     6     7 2   
    11     7     8 1   
    12     7    17 1   
    13     8     9 2   
    14     9    10 1   
    15    10    11 1   
    16    10    26 1   
    17    11    12 ar  
    18    11    16 ar  
    19    12    13 ar  
    20    12    27 1   
    21    13    14 ar  
    22    13    28 1   
    23    14    15 ar  
    24    14    29 1   
    25    15    16 ar  
    26    15    30 1   
    27    16    31 1   
    28    17    18 1   
    29    17    32 1   
    30    18    19 ar  
    31    18    23 ar  
    32    19    20 ar  
    33    19    33 1   
    34    20    21 ar  
    35    20    34 1   
    36    21    22 ar  
    37    21    35 1   
    38    22    23 ar  
    39    22    36 1   
    40    23    37 1   
@<TRIPOS>SUBSTRUCTURE
     1 P19         1 TEMP              0 ****  ****    0 ROOT
