@<TRIPOS>MOLECULE
P1A
   77    80     1     0     0
SMALL
abcg2


@<TRIPOS>ATOM
      1 C5           0.3520     0.8050    -4.3770 c6         1 P1A      -0.159700
      2 C10          0.1880    -0.5630    -3.6920 c6         1 P1A      -0.025000
      3 C1          -0.9090    -1.3400    -4.4340 c6         1 P1A      -0.066400
      4 C2          -2.2250    -0.5880    -4.5510 c6         1 P1A       0.131300
      5 C3          -2.0340     0.7770    -5.2160 c6         1 P1A       0.143300
      6 C4          -0.9710     1.5800    -4.4850 c6         1 P1A      -0.060400
      7 C9          -0.1790    -0.3590    -2.1980 c6         1 P1A      -0.022500
      8 C19          1.5020    -1.3360    -3.8530 c3         1 P1A      -0.090100
      9 C11         -0.2730    -1.6870    -1.4230 c6         1 P1A      -0.066400
     10 C8           0.6990     0.6710    -1.5310 c2         1 P1A      -0.047400
     11 C12         -0.3330    -1.5690     0.1010 c6         1 P1A      -0.059400
     12 C14          0.5860     0.7340    -0.0280 c5         1 P1A       0.198200
     13 C13          0.7710    -0.6530     0.6310 c5         1 P1A      -0.015000
     14 C18          2.1470    -1.2100     0.2400 c3         1 P1A      -0.082100
     15 C17          0.6920    -0.2570     2.1300 c5         1 P1A      -0.081700
     16 O14         -0.7480     1.1580     0.2380 oh         1 P1A      -0.659000
     17 C15          1.5550     1.6190     0.7430 c5         1 P1A      -0.101400
     18 C20          1.1150    -1.2540     3.2350 c3         1 P1A       0.175000
     19 C16          1.4470     1.0990     2.1880 c5         1 P1A      -0.071400
     20 C22          0.8910    -0.5920     4.6310 c3         1 P1A       0.137300
     21 O20          2.4810    -1.6170     3.1430 oh         1 P1A      -0.648000
     22 C21          0.3390    -2.5620     3.1400 c3         1 P1A      -0.083100
     23 C6           1.3670     1.6700    -3.6740 c          1 P1A       0.576300
     24 C7           1.4130     1.5750    -2.2170 ce         1 P1A      -0.316200
     25 O3          -1.6410     0.6350    -6.5630 oh         1 P1A      -0.654000
     26 O2          -3.1090    -1.3920    -5.3110 oh         1 P1A      -0.664000
     27 O22          1.4600    -1.3780     5.6580 oh         1 P1A      -0.648000
     28 C23         -0.5610    -0.2440     4.9510 c3         1 P1A      -0.109400
     29 C24         -0.7100     0.5340     6.2550 c3         1 P1A      -0.072400
     30 C25         -2.1560     0.7620     6.6960 c3         1 P1A      -0.060700
     31 C26         -2.1870     1.4780     8.0430 c3         1 P1A      -0.088100
     32 C27         -2.9660     1.5390     5.6630 c3         1 P1A      -0.088100
     33 O6           2.0610     2.4660    -4.2820 o          1 P1A      -0.520100
     34 H5           0.7210     0.6380    -5.3940 hc         1 P1A       0.095700
     35 H11         -1.0820    -2.3050    -3.9510 hc         1 P1A       0.060700
     36 H12         -0.5410    -1.5700    -5.4400 hc         1 P1A       0.060700
     37 H2          -2.6410    -0.4140    -3.5480 h1         1 P1A       0.038700
     38 H3          -2.9850     1.3290    -5.1540 h1         1 P1A       0.028700
     39 H41         -1.3540     1.8460    -3.4960 hc         1 P1A       0.057200
     40 H42         -0.8030     2.5250    -5.0070 hc         1 P1A       0.057200
     41 H9          -1.1860     0.0750    -2.1520 hc         1 P1A       0.064700
     42 H191         1.7980    -1.3430    -4.9040 hc         1 P1A       0.041367
     43 H192         2.3250    -0.8950    -3.2870 hc         1 P1A       0.041367
     44 H193         1.4080    -2.3750    -3.5410 hc         1 P1A       0.041367
     45 H111         0.5680    -2.3320    -1.6810 hc         1 P1A       0.043700
     46 H112        -1.1650    -2.2160    -1.7650 hc         1 P1A       0.043700
     47 H121        -0.2320    -2.5750     0.5080 hc         1 P1A       0.050200
     48 H122        -1.3110    -1.2060     0.4220 hc         1 P1A       0.050200
     49 H181         2.3040    -1.1770    -0.8390 hc         1 P1A       0.040700
     50 H182         2.9680    -0.6590     0.6950 hc         1 P1A       0.040700
     51 H183         2.2500    -2.2480     0.5490 hc         1 P1A       0.040700
     52 H17         -0.3630    -0.0460     2.3110 hc         1 P1A       0.068700
     53 H14         -0.8190     2.0850    -0.0160 ho         1 P1A       0.443000
     54 H151         1.3060     2.6790     0.6530 hc         1 P1A       0.054200
     55 H152         2.5720     1.5060     0.3660 hc         1 P1A       0.054200
     56 H161         0.9210     1.8080     2.8260 hc         1 P1A       0.041700
     57 H162         2.4490     0.9980     2.6100 hc         1 P1A       0.041700
     58 H22          1.4750     0.3370     4.6430 h1         1 P1A       0.065700
     59 H20          3.0250    -0.8400     3.3040 ho         1 P1A       0.444000
     60 H211        -0.7290    -2.3880     3.0100 hc         1 P1A       0.043700
     61 H212         0.6820    -3.1600     2.2970 hc         1 P1A       0.043700
     62 H213         0.4690    -3.1790     4.0320 hc         1 P1A       0.043700
     63 H7           2.0240     2.3090    -1.7040 ha         1 P1A       0.196000
     64 HO3         -2.1820    -0.0650    -6.9480 ho         1 P1A       0.455000
     65 HO2         -3.9940    -1.0200    -5.2450 ho         1 P1A       0.445000
     66 H1           0.8640    -2.1080     5.8540 ho         1 P1A       0.441000
     67 H231        -1.1580    -1.1630     4.9970 hc         1 P1A       0.046700
     68 H232        -0.9880     0.3410     4.1350 hc         1 P1A       0.046700
     69 H241        -0.2120     1.5060     6.1520 hc         1 P1A       0.044700
     70 H242        -0.1840     0.0070     7.0560 hc         1 P1A       0.044700
     71 H25         -2.6240    -0.2220     6.8260 hc         1 P1A       0.042700
     72 H261        -3.2090     1.5990     8.4060 hc         1 P1A       0.032533
     73 H262        -1.6280     0.9280     8.8030 hc         1 P1A       0.032533
     74 H263        -1.7450     2.4750     7.9640 hc         1 P1A       0.032533
     75 H271        -2.4890     2.4960     5.4340 hc         1 P1A       0.032533
     76 H272        -3.0750     0.9920     4.7260 hc         1 P1A       0.032533
     77 H273        -3.9700     1.7520     6.0330 hc         1 P1A       0.032533
@<TRIPOS>BOND
     1     1     2 1   
     2     1     6 1   
     3     1    23 1   
     4     1    34 1   
     5     2     3 1   
     6     2     7 1   
     7     2     8 1   
     8     3     4 1   
     9     3    35 1   
    10     3    36 1   
    11     4     5 1   
    12     4    26 1   
    13     4    37 1   
    14     5     6 1   
    15     5    25 1   
    16     5    38 1   
    17     6    39 1   
    18     6    40 1   
    19     7     9 1   
    20     7    10 1   
    21     7    41 1   
    22     8    42 1   
    23     8    43 1   
    24     8    44 1   
    25     9    11 1   
    26     9    45 1   
    27     9    46 1   
    28    10    12 1   
    29    10    24 2   
    30    11    13 1   
    31    11    47 1   
    32    11    48 1   
    33    12    13 1   
    34    12    16 1   
    35    12    17 1   
    36    13    14 1   
    37    13    15 1   
    38    14    49 1   
    39    14    50 1   
    40    14    51 1   
    41    15    18 1   
    42    15    19 1   
    43    15    52 1   
    44    16    53 1   
    45    17    19 1   
    46    17    54 1   
    47    17    55 1   
    48    18    20 1   
    49    18    21 1   
    50    18    22 1   
    51    19    56 1   
    52    19    57 1   
    53    20    27 1   
    54    20    28 1   
    55    20    58 1   
    56    21    59 1   
    57    22    60 1   
    58    22    61 1   
    59    22    62 1   
    60    23    24 1   
    61    23    33 2   
    62    24    63 1   
    63    25    64 1   
    64    26    65 1   
    65    27    66 1   
    66    28    29 1   
    67    28    67 1   
    68    28    68 1   
    69    29    30 1   
    70    29    69 1   
    71    29    70 1   
    72    30    31 1   
    73    30    32 1   
    74    30    71 1   
    75    31    72 1   
    76    31    73 1   
    77    31    74 1   
    78    32    75 1   
    79    32    76 1   
    80    32    77 1   
@<TRIPOS>SUBSTRUCTURE
     1 P1A         1 TEMP              0 ****  ****    0 ROOT
