@<TRIPOS>MOLECULE
P1A
   77    80     1     0     0
SMALL
No Charge or Current Charge


@<TRIPOS>ATOM
      1 C5           0.0000     0.0000     0.0000 c6         1 P1A      -0.159700
      2 C10          0.0000     0.0000     0.0000 c6         1 P1A      -0.025000
      3 C1           0.0000     0.0000     0.0000 c6         1 P1A      -0.066400
      4 C2           0.0000     0.0010     0.0000 c6         1 P1A       0.131300
      5 C3           0.0000     0.0000     0.0000 c6         1 P1A       0.143300
      6 C4           0.0000     0.0000     0.1920 c6         1 P1A      -0.060400
      7 C9           0.0000     0.0000     0.0000 c6         1 P1A      -0.022500
      8 C19      96954988987350213276315547649546486539950367541808276171663544189481356945992103913157573515760589636470778428212264208336101078089892848007114485592128241358746943488.0000     0.0000     0.0000 c3         1 P1A      -0.090100
      9 C11          0.0000     0.0000     0.0000 c6         1 P1A      -0.066400
     10 C8           0.0000     0.0000     0.0000 c2         1 P1A      -0.047400
     11 C12          0.0000     0.0000     0.0000 c6         1 P1A      -0.059400
     12 C14          0.0000     0.0000     0.0000 c5         1 P1A       0.198200
     13 C13          0.0000     0.0000     0.0000 c5         1 P1A      -0.015000
     14 C18          0.0000     0.0000     0.0000 c3         1 P1A      -0.082100
     15 C17          0.0000     0.0000     0.0000 c5         1 P1A      -0.081700
     16 O14          0.0000     0.0000     0.0000 oh         1 P1A      -0.659000
     17 C15          0.0000     0.0000     0.0000 c5         1 P1A      -0.101400
     18 C20          0.0000     0.0000     0.0000 c3         1 P1A       0.175000
     19 C16          0.0000     0.0000     0.0000 c5         1 P1A      -0.071400
     20 C22          0.0000     0.0000     0.0000 c3         1 P1A       0.137300
     21 O20          0.0000     0.0000     0.0000 oh         1 P1A      -0.648000
     22 C21          0.0000     0.0000     0.0000 c3         1 P1A      -0.083100
     23 C6           0.0000     0.0000     0.0000 c          1 P1A       0.576300
     24 C7           0.0000     0.0000     0.0000 ce         1 P1A      -0.316200
     25 O3           0.0000     0.0000     0.0000 oh         1 P1A      -0.654000
     26 O2           0.0000     0.0000     0.0000 oh         1 P1A      -0.664000
     27 O22          0.0000     0.0000     0.0000 oh         1 P1A      -0.648000
     28 C23          0.0000     0.0000     0.0000 c3         1 P1A      -0.109400
     29 C24          0.0000     0.0000     0.0000 c3         1 P1A      -0.072400
     30 C25          0.0000     0.0000     0.0000 c3         1 P1A      -0.060700
     31 C26          0.0000     0.0000     0.0000 c3         1 P1A      -0.088100
     32 C27          0.0000     0.0000     0.0000 c3         1 P1A      -0.088100
     33 O6           0.0000     0.0000     0.0000 o          1 P1A      -0.520100
     34 H5           0.0000     0.0000     0.0000 hc         1 P1A       0.095700
     35 H11          0.0000     0.0000     0.0000 hc         1 P1A       0.060700
     36 H12          0.0000     0.0000     0.0000 hc         1 P1A       0.060700
     37 H2           0.0000     0.0000     0.0000 h1         1 P1A       0.038700
     38 H3           0.0000     0.0000     0.0000 h1         1 P1A       0.028700
     39 H41          0.0000     0.0000     0.0000 hc         1 P1A       0.057200
     40 H42          0.0000     0.0000     0.0000 hc         1 P1A       0.057200
     41 H9           0.0000     0.0000     0.0000 hc         1 P1A       0.064700
     42 H191         0.0000     0.0000     0.0000 hc         1 P1A       0.041367
     43 H192         0.0000     0.0000     0.0000 hc         1 P1A       0.041367
     44 H193         0.0000     0.0000     0.0000 hc         1 P1A       0.041367
     45 H111         0.0000     0.0000     0.0000 hc         1 P1A       0.043700
     46 H112         0.0000     0.0000     0.0000 hc         1 P1A       0.043700
     47 H121         0.0000     0.0000     0.0000 hc         1 P1A       0.050200
     48 H122         0.0000     0.0000     0.0000 hc         1 P1A       0.050200
     49 H181         0.0000     0.0000     0.0000 hc         1 P1A       0.040700
     50 H182         0.0000     0.0000     0.0000 hc         1 P1A       0.040700
     51 H183         0.0000     0.0000     0.0000 hc         1 P1A       0.040700
     52 H17          0.0000     0.0000     0.0000 hc         1 P1A       0.068700
     53 H14          0.0000     0.0000     0.0000 ho         1 P1A       0.443000
     54 H151         0.0000     0.0000     0.0000 hc         1 P1A       0.054200
     55 H152         0.0000     0.0000     0.0000 hc         1 P1A       0.054200
     56 H161         0.0000     0.0000     0.0000 hc         1 P1A       0.041700
     57 H162         0.0000     0.0000     0.0000 hc         1 P1A       0.041700
     58 H22          0.0000     0.0000     0.0000 h1         1 P1A       0.065700
     59 H20          0.0000     0.0000     0.0000 ho         1 P1A       0.444000
     60 H211         0.0000     0.0000     0.0000 hc         1 P1A       0.043700
     61 H212         0.0000     0.0000     0.0000 hc         1 P1A       0.043700
     62 H213         0.0000     0.0000     0.0000 hc         1 P1A       0.043700
     63 H7           0.0000     0.0000     0.0000 ha         1 P1A       0.196000
     64 HO3          0.0000     0.0000     0.0000 ho         1 P1A       0.455000
     65 HO2          0.0000     0.0000     0.0000 ho         1 P1A       0.445000
     66 H1           0.0000     0.0000     0.0000 ho         1 P1A       0.441000
     67 H231         0.0000     0.0000     0.0000 hc         1 P1A       0.046700
     68 H232         0.0000     0.0000     0.0000 hc         1 P1A       0.046700
     69 H241         0.0000     0.0000     0.0000 hc         1 P1A       0.044700
     70 H242         0.0000     0.0000     0.0000 hc         1 P1A       0.044700
     71 H25          0.0000     0.0000     0.0000 hc         1 P1A       0.042700
     72 H261         0.0000     0.0000     0.0000 hc         1 P1A       0.032533
     73 H262         0.0000     0.0000     0.0000 hc         1 P1A       0.032533
     74 H263         0.0000     0.0000     0.0000 hc         1 P1A       0.032533
     75 H271         0.0000     0.0000     0.0000 hc         1 P1A       0.032533
     76 H272         0.0000     0.0000     0.0000 hc         1 P1A       0.032533
     77 H273         0.0000     0.0000     0.0000 hc         1 P1A       0.032533
@<TRIPOS>BOND
     1     1     2 1   
     2     1     6 1   
     3     1    23 1   
     4     1    34 1   
     5     2     3 1   
     6     2     7 1   
     7     2     8 1   
     8     3     4 1   
     9     3    35 1   
    10     3    36 1   
    11     4     5 1   
    12     4    26 1   
    13     4    37 1   
    14     5     6 1   
    15     5    25 1   
    16     5    38 1   
    17     6    39 1   
    18     6    40 1   
    19     7     9 1   
    20     7    10 1   
    21     7    41 1   
    22     8    42 1   
    23     8    43 1   
    24     8    44 1   
    25     9    11 1   
    26     9    45 1   
    27     9    46 1   
    28    10    12 1   
    29    10    24 2   
    30    11    13 1   
    31    11    47 1   
    32    11    48 1   
    33    12    13 1   
    34    12    16 1   
    35    12    17 1   
    36    13    14 1   
    37    13    15 1   
    38    14    49 1   
    39    14    50 1   
    40    14    51 1   
    41    15    18 1   
    42    15    19 1   
    43    15    52 1   
    44    16    53 1   
    45    17    19 1   
    46    17    54 1   
    47    17    55 1   
    48    18    20 1   
    49    18    21 1   
    50    18    22 1   
    51    19    56 1   
    52    19    57 1   
    53    20    27 1   
    54    20    28 1   
    55    20    58 1   
    56    21    59 1   
    57    22    60 1   
    58    22    61 1   
    59    22    62 1   
    60    23    24 1   
    61    23    33 2   
    62    24    63 1   
    63    25    64 1   
    64    26    65 1   
    65    27    66 1   
    66    28    29 1   
    67    28    67 1   
    68    28    68 1   
    69    29    30 1   
    70    29    69 1   
    71    29    70 1   
    72    30    31 1   
    73    30    32 1   
    74    30    71 1   
    75    31    72 1   
    76    31    73 1   
    77    31    74 1   
    78    32    75 1   
    79    32    76 1   
    80    32    77 1   
@<TRIPOS>SUBSTRUCTURE
     1 P1A         1 TEMP              0 ****  ****    0 ROOT
