@<TRIPOS>MOLECULE
P1B
   45    47     1     0     0
SMALL
No Charge or Current Charge


@<TRIPOS>ATOM
      1 O4           7.3060    -1.0900     0.5830 o          1 P1B      -0.487000
      2 C4           6.5510    -0.3300    -0.0000 c          1 P1B       0.575000
      3 N3           6.9320     0.8770    -0.4890 ns         1 P1B      -0.483500
      4 C5           5.0490    -0.5170    -0.3130 c5         1 P1B      -0.036700
      5 S1           4.4670     1.0250    -1.2040 ss         1 P1B      -0.262600
      6 C2           6.1180     1.7480    -1.1280 c          1 P1B       0.593600
      7 O2           6.4610     2.8320    -1.5670 o          1 P1B      -0.464000
      8 C6           4.2150    -0.7550     0.9700 c3         1 P1B       0.001900
      9 C21         -6.3330     1.1630    -0.8900 ca         1 P1B      -0.072000
     10 C7           2.7390    -1.0180     0.6920 ca         1 P1B      -0.141300
     11 C12          2.3300    -2.2530     0.1530 ca         1 P1B      -0.059000
     12 C11          0.9710    -2.4950    -0.1060 ca         1 P1B      -0.172500
     13 C10          0.0070    -1.5130     0.1670 ca         1 P1B       0.157100
     14 C9           0.4130    -0.2740     0.7090 ca         1 P1B      -0.172500
     15 C8           1.7730    -0.0310     0.9690 ca         1 P1B      -0.059000
     16 O13         -1.3120    -1.8090    -0.1100 os         1 P1B      -0.349100
     17 C14         -2.3740    -0.8700     0.1310 c3         1 P1B       0.165600
     18 C15         -3.6900    -1.5390    -0.2950 c3         1 P1B      -0.127700
     19 C24         -9.5090     1.4590    -0.1170 c3         1 P1B      -0.087100
     20 C20         -7.0380     1.0520     0.3220 ca         1 P1B      -0.127300
     21 C19         -6.6080     0.0950     1.2640 ca         1 P1B       0.342900
     22 N18         -5.5480    -0.7230     1.0620 nb         1 P1B      -0.671000
     23 C22         -5.2340     0.3150    -1.1030 ca         1 P1B      -0.152000
     24 C17         -4.8760    -0.6120    -0.1060 ca         1 P1B       0.339300
     25 H3           7.8960     1.1480    -0.3640 hn         1 P1B       0.351500
     26 H5           4.9590    -1.3800    -0.9840 h1         1 P1B       0.114700
     27 H61C         4.6310    -1.6110     1.5180 hc         1 P1B       0.067700
     28 H62C         4.3270     0.1040     1.6440 hc         1 P1B       0.067700
     29 H21         -6.6290     1.8870    -1.6470 ha         1 P1B       0.119000
     30 H22         -4.6650     0.3740    -2.0270 ha         1 P1B       0.124000
     31 H12          3.0650    -3.0250    -0.0640 ha         1 P1B       0.114000
     32 H8           2.0750     0.9290     1.3820 ha         1 P1B       0.114000
     33 H11          0.6620    -3.4500    -0.5230 ha         1 P1B       0.125500
     34 H9          -0.3070     0.5080     0.9310 ha         1 P1B       0.125500
     35 H141        -2.4250    -0.6050     1.1960 h1         1 P1B       0.044200
     36 H142        -2.2220     0.0470    -0.4530 h1         1 P1B       0.044200
     37 H151        -3.6160    -1.8380    -1.3470 hc         1 P1B       0.068700
     38 H152        -3.8280    -2.4610     0.2820 hc         1 P1B       0.068700
     39 H241       -10.3550     2.1180     0.1120 hc         1 P1B       0.037367
     40 H242        -9.3600     1.4550    -1.2030 hc         1 P1B       0.037367
     41 H243        -9.7690     0.4420     0.2010 hc         1 P1B       0.037367
     42 H231        -8.0230     2.9740     0.2940 hc         1 P1B       0.048200
     43 H232        -8.4380     1.9870     1.6840 hc         1 P1B       0.048200
     44 H19         -7.1290    -0.0220     2.2140 h4         1 P1B       0.019100
     45 C23         -8.2390     1.9440     0.6060 c3         1 P1B      -0.028100
@<TRIPOS>BOND
     1     1     2 2   
     2     2     3 1   
     3     2     4 1   
     4     3     6 1   
     5     3    25 1   
     6     4     5 1   
     7     4     8 1   
     8     4    26 1   
     9     5     6 1   
    10     6     7 2   
    11     8    10 1   
    12     8    27 1   
    13     8    28 1   
    14     9    20 ar  
    15     9    23 ar  
    16     9    29 1   
    17    10    11 ar  
    18    10    15 ar  
    19    11    12 ar  
    20    11    31 1   
    21    12    13 ar  
    22    12    33 1   
    23    13    14 ar  
    24    13    16 1   
    25    14    15 ar  
    26    14    34 1   
    27    15    32 1   
    28    16    17 1   
    29    17    18 1   
    30    17    35 1   
    31    17    36 1   
    32    18    24 1   
    33    18    37 1   
    34    18    38 1   
    35    19    39 1   
    36    19    40 1   
    37    19    41 1   
    38    19    45 1   
    39    20    21 ar  
    40    20    45 1   
    41    21    22 ar  
    42    21    44 1   
    43    22    24 ar  
    44    23    24 ar  
    45    23    30 1   
    46    42    45 1   
    47    43    45 1   
@<TRIPOS>SUBSTRUCTURE
     1 P1B         1 TEMP              0 ****  ****    0 ROOT
