@<TRIPOS>MOLECULE
P1B
   45    47     1     0     0
SMALL
abcg2


@<TRIPOS>ATOM
      1 O4           7.0640    -0.9970     0.8310 o          1 P1B      -0.487000
      2 C4           6.3720    -0.2510     0.1870 c          1 P1B       0.575000
      3 N3           6.7870     0.9460    -0.3240 ns         1 P1B      -0.483500
      4 C5           4.9180    -0.5250    -0.1490 c5         1 P1B      -0.036700
      5 S1           4.3170     0.9180    -1.0780 ss         1 P1B      -0.262600
      6 C2           5.8880     1.7210    -1.0170 c          1 P1B       0.593600
      7 O2           6.1230     2.7900    -1.5090 o          1 P1B      -0.464000
      8 C6           4.0830    -0.7910     1.1050 c3         1 P1B       0.001900
      9 C21         -6.3950     1.0480    -1.0930 ca         1 P1B      -0.072000
     10 C7           2.6430    -1.0500     0.7630 ca         1 P1B      -0.141300
     11 C12          2.2560    -2.2520     0.1670 ca         1 P1B      -0.059000
     12 C11          0.9420    -2.4890    -0.1830 ca         1 P1B      -0.172500
     13 C10         -0.0350    -1.5180     0.0560 ca         1 P1B       0.157100
     14 C9           0.3330    -0.3150     0.6510 ca         1 P1B      -0.172500
     15 C8           1.6640    -0.0950     0.9930 ca         1 P1B      -0.059000
     16 O13         -1.2910    -1.8330    -0.3150 os         1 P1B      -0.349100
     17 C14         -2.3250    -0.8880    -0.1000 c3         1 P1B       0.165600
     18 C15         -3.6170    -1.4830    -0.6350 c3         1 P1B      -0.127700
     19 C24         -9.3410     1.3170     0.4130 c3         1 P1B      -0.087100
     20 C20         -6.8430     1.1550     0.2180 ca         1 P1B      -0.127300
     21 C19         -6.1860     0.3710     1.1630 ca         1 P1B       0.342900
     22 N18         -5.1860    -0.4540     0.8850 nb         1 P1B      -0.671000
     23 C22         -5.3490     0.1920    -1.3950 ca         1 P1B      -0.152000
     24 C17         -4.7680    -0.5530    -0.3750 ca         1 P1B       0.339300
     25 H3           7.7350     1.2760    -0.1840 hn         1 P1B       0.351500
     26 H5           4.8860    -1.3950    -0.8100 h1         1 P1B       0.114700
     27 H61C         4.5150    -1.6570     1.6130 hc         1 P1B       0.067700
     28 H62C         4.1660     0.0590     1.7830 hc         1 P1B       0.067700
     29 H21         -6.8600     1.6360    -1.8760 ha         1 P1B       0.119000
     30 H22         -4.9860     0.1020    -2.4110 ha         1 P1B       0.124000
     31 H12          2.9970    -3.0210    -0.0240 ha         1 P1B       0.114000
     32 H8           1.9330     0.8470     1.4550 ha         1 P1B       0.114000
     33 H11          0.6570    -3.4270    -0.6420 ha         1 P1B       0.125500
     34 H9          -0.3920     0.4620     0.8540 ha         1 P1B       0.125500
     35 H141        -2.4300    -0.6670     0.9680 h1         1 P1B       0.044200
     36 H142        -2.0990     0.0510    -0.6160 h1         1 P1B       0.044200
     37 H151        -3.5200    -1.6710    -1.7060 hc         1 P1B       0.068700
     38 H152        -3.8070    -2.4400    -0.1450 hc         1 P1B       0.068700
     39 H241       -10.1680     1.9730     0.6860 hc         1 P1B       0.037367
     40 H242        -9.4850     1.0100    -0.6230 hc         1 P1B       0.037367
     41 H243        -9.3990     0.4260     1.0390 hc         1 P1B       0.037367
     42 H231        -7.9860     2.9380    -0.0110 hc         1 P1B       0.048200
     43 H232        -7.8980     2.3480     1.6360 hc         1 P1B       0.048200
     44 H19         -6.4920     0.4190     2.2050 h4         1 P1B       0.019100
     45 C23         -8.0020     2.0300     0.5970 c3         1 P1B      -0.028100
@<TRIPOS>BOND
     1     1     2 2   
     2     2     3 1   
     3     2     4 1   
     4     3     6 1   
     5     3    25 1   
     6     4     5 1   
     7     4     8 1   
     8     4    26 1   
     9     5     6 1   
    10     6     7 2   
    11     8    10 1   
    12     8    27 1   
    13     8    28 1   
    14     9    20 ar  
    15     9    23 ar  
    16     9    29 1   
    17    10    11 ar  
    18    10    15 ar  
    19    11    12 ar  
    20    11    31 1   
    21    12    13 ar  
    22    12    33 1   
    23    13    14 ar  
    24    13    16 1   
    25    14    15 ar  
    26    14    34 1   
    27    15    32 1   
    28    16    17 1   
    29    17    18 1   
    30    17    35 1   
    31    17    36 1   
    32    18    24 1   
    33    18    37 1   
    34    18    38 1   
    35    19    39 1   
    36    19    40 1   
    37    19    41 1   
    38    19    45 1   
    39    20    21 ar  
    40    20    45 1   
    41    21    22 ar  
    42    21    44 1   
    43    22    24 ar  
    44    23    24 ar  
    45    23    30 1   
    46    42    45 1   
    47    43    45 1   
@<TRIPOS>SUBSTRUCTURE
     1 P1B         1 TEMP              0 ****  ****    0 ROOT
