@<TRIPOS>MOLECULE
P1C
   41    42     1     0     0
SMALL
No Charge or Current Charge


@<TRIPOS>ATOM
      1 C1           0.1790     0.2110    -7.5720 c          1 P1C       0.691000
      2 C2          -0.4710    -0.3290    -6.2300 c3         1 P1C       0.015500
      3 C3           0.3530     0.1510    -5.0040 c3         1 P1C      -0.053400
      4 C4           0.0140    -0.5760    -3.6790 c3         1 P1C      -0.065400
      5 C7           0.8960    -0.1160    -2.4930 c3         1 P1C      -0.155400
      6 C10          0.5310    -0.8530    -1.2000 c          1 P1C       0.608100
      7 N11         -0.1460    -0.1000    -0.2680 ns         1 P1C      -0.487900
      8 C12         -0.5210    -0.5900     1.0520 cy         1 P1C       0.015700
      9 C13         -1.3640     0.3190     2.0130 c          1 P1C       0.573000
     10 N14         -1.9390    -0.0350    -6.0420 n8         1 P1C      -0.995200
     11 O15          0.8410    -2.0180    -0.9950 o          1 P1C      -0.613100
     12 C16          0.5380    -0.6170     2.2170 cy         1 P1C       0.193700
     13 O18         -2.4550     0.8730     1.9570 o          1 P1C      -0.474000
     14 O19         -0.0110     1.3810    -7.8830 o          1 P1C      -0.741000
     15 O20          0.7460    -0.5880    -8.3050 o          1 P1C      -0.741000
     16 N29         -0.3800     0.2110     2.9990 nj         1 P1C      -0.286000
     17 C30         -0.2740     0.2210     4.4420 ce         1 P1C       0.010400
     18 C31         -1.5320     0.0580     5.3070 c          1 P1C       0.725200
     19 C32          1.0010     0.5060     4.8710 c2         1 P1C      -0.232400
     20 C33          1.4050     0.6630     6.3320 c3         1 P1C      -0.008900
     21 C37          2.2200     0.6110     3.9430 c6         1 P1C       0.132800
     22 O42         -1.4660     0.1930     6.5220 o          1 P1C      -0.698500
     23 O43         -2.5810    -0.2510     4.7570 o          1 P1C      -0.698500
     24 S            1.9880     0.5230     2.1110 ss         1 P1C      -0.498000
     25 H2          -0.3760    -1.4230    -6.2700 h1         1 P1C       0.038700
     26 H3C1         0.2210     1.2320    -4.8740 hc         1 P1C       0.036200
     27 H3C2         1.4170    -0.0080    -5.2200 hc         1 P1C       0.036200
     28 H4C1         0.1350    -1.6570    -3.8210 hc         1 P1C       0.051700
     29 H4C2        -1.0400    -0.4050    -3.4250 hc         1 P1C       0.051700
     30 H7C1         0.7620     0.9650    -2.3600 hc         1 P1C       0.053700
     31 H7C2         1.9430    -0.3310    -2.7350 hc         1 P1C       0.053700
     32 H11         -0.3400     0.8620    -0.5260 hn         1 P1C       0.327500
     33 H12         -1.0140    -1.5590     0.9270 h1         1 P1C       0.108700
     34 H141        -2.0770     0.9790    -6.1330 hn         1 P1C       0.378000
     35 H142        -2.4600    -0.4130    -6.8420 hn         1 P1C       0.378000
     36 H16          0.8060    -1.5850     2.6550 h2         1 P1C       0.091700
     37 H331         2.4760     0.8710     6.4490 hc         1 P1C       0.026033
     38 H332         0.8670     1.4950     6.8030 hc         1 P1C       0.026033
     39 H333         1.1930    -0.2490     6.9010 hc         1 P1C       0.026033
     40 H371         2.7580     1.5480     4.1480 h1         1 P1C       0.049700
     41 H372         2.9090    -0.2070     4.1980 h1         1 P1C       0.049700
@<TRIPOS>BOND
     1     1     2 1   
     2     1    14 1   
     3     1    15 1   
     4     2     3 1   
     5     2    10 1   
     6     2    25 1   
     7     3     4 1   
     8     3    26 1   
     9     3    27 1   
    10     4     5 1   
    11     4    28 1   
    12     4    29 1   
    13     5     6 1   
    14     5    30 1   
    15     5    31 1   
    16     6     7 1   
    17     6    11 2   
    18     7     8 1   
    19     7    32 1   
    20     8     9 1   
    21     8    12 1   
    22     8    33 1   
    23     9    13 2   
    24     9    16 1   
    25    10    34 1   
    26    10    35 1   
    27    12    16 1   
    28    12    24 1   
    29    12    36 1   
    30    16    17 1   
    31    17    18 1   
    32    17    19 2   
    33    18    22 1   
    34    18    23 1   
    35    19    20 1   
    36    19    21 1   
    37    20    37 1   
    38    20    38 1   
    39    20    39 1   
    40    21    24 1   
    41    21    40 1   
    42    21    41 1   
@<TRIPOS>SUBSTRUCTURE
     1 P1C         1 TEMP              0 ****  ****    0 ROOT
