@<TRIPOS>MOLECULE
P1C
   41    42     1     0     0
SMALL
bcc


@<TRIPOS>ATOM
      1 C1           0.5000     0.6340    -7.3470 c          1 P1C       0.901600
      2 C2          -0.2230    -0.1730    -6.2380 c3         1 P1C       0.015500
      3 C3           0.2840     0.2750    -4.8660 c3         1 P1C      -0.053400
      4 C4          -0.2120    -0.5890    -3.7140 c3         1 P1C      -0.065400
      5 C7           0.3140    -0.0880    -2.3750 c3         1 P1C      -0.155400
      6 C10         -0.0550    -0.9740    -1.2100 c          1 P1C       0.675100
      7 N11         -0.3010    -0.3120    -0.0510 ns         1 P1C      -0.554900
      8 C12         -0.5640    -0.9750     1.1780 cy         1 P1C       0.015700
      9 C13         -1.3720    -0.1800     2.2130 c          1 P1C       0.715500
     10 N14         -1.6770    -0.1210    -6.2710 n8         1 P1C      -0.884800
     11 O15         -0.1030    -2.1900    -1.2870 o          1 P1C      -0.613100
     12 C16          0.5280    -1.0090     2.2810 cy         1 P1C       0.145800
     13 O18         -2.3940     0.4520     2.1890 o          1 P1C      -0.549500
     14 O19         -0.1890     1.4000    -8.0500 o          1 P1C      -0.846300
     15 O20          1.7330     0.4540    -7.4370 o          1 P1C      -0.846300
     16 N29         -0.4320    -0.4040     3.1740 nj         1 P1C      -0.353000
     17 C30         -0.1610     0.2150     4.3990 ce         1 P1C       0.010400
     18 C31         -1.3820     0.4060     5.2950 c          1 P1C       0.935800
     19 C32          1.1110     0.5140     4.7060 c2         1 P1C      -0.232400
     20 C33          1.5520     1.0570     6.0320 c3         1 P1C      -0.008900
     21 C37          2.2840     0.2720     3.7870 c6         1 P1C       0.084900
     22 O42         -1.4260     1.4380     5.9870 o          1 P1C      -0.803800
     23 O43         -2.2200    -0.5100     5.2380 o          1 P1C      -0.803800
     24 S            1.9140     0.1150     2.0140 ss         1 P1C      -0.402200
     25 H2           0.0690    -1.2230    -6.3650 h1         1 P1C       0.038700
     26 H3C1        -0.0110     1.3190    -4.6990 hc         1 P1C       0.036200
     27 H3C2         1.3770     0.2660    -4.8770 hc         1 P1C       0.036200
     28 H4C1         0.1100    -1.6210    -3.8730 hc         1 P1C       0.051700
     29 H4C2        -1.3030    -0.6010    -3.7050 hc         1 P1C       0.051700
     30 H7C1        -0.0210     0.9370    -2.1970 hc         1 P1C       0.053700
     31 H7C2         1.4090    -0.0450    -2.4030 hc         1 P1C       0.053700
     32 H11         -0.2240     0.6930    -0.0490 hn         1 P1C       0.327500
     33 H12         -0.9720    -1.9680     0.9890 h1         1 P1C       0.108700
     34 H141        -1.9570     0.8540    -6.2750 hn         1 P1C       0.322800
     35 H142        -1.9940    -0.4750    -7.1650 hn         1 P1C       0.322800
     36 H16          0.8760    -1.9920     2.6010 h2         1 P1C       0.091700
     37 H331         2.4290     0.5060     6.3830 hc         1 P1C       0.026033
     38 H332         1.8590     2.1020     5.9370 hc         1 P1C       0.026033
     39 H333         0.7840     1.0010     6.7950 hc         1 P1C       0.026033
     40 H371         2.9750     1.1140     3.8640 h1         1 P1C       0.049700
     41 H372         2.8370    -0.6100     4.1200 h1         1 P1C       0.049700
@<TRIPOS>BOND
     1     1     2 1   
     2     1    14 1   
     3     1    15 1   
     4     2     3 1   
     5     2    10 1   
     6     2    25 1   
     7     3     4 1   
     8     3    26 1   
     9     3    27 1   
    10     4     5 1   
    11     4    28 1   
    12     4    29 1   
    13     5     6 1   
    14     5    30 1   
    15     5    31 1   
    16     6     7 1   
    17     6    11 2   
    18     7     8 1   
    19     7    32 1   
    20     8     9 1   
    21     8    12 1   
    22     8    33 1   
    23     9    13 2   
    24     9    16 1   
    25    10    34 1   
    26    10    35 1   
    27    12    16 1   
    28    12    24 1   
    29    12    36 1   
    30    16    17 1   
    31    17    18 1   
    32    17    19 2   
    33    18    22 1   
    34    18    23 1   
    35    19    20 1   
    36    19    21 1   
    37    20    37 1   
    38    20    38 1   
    39    20    39 1   
    40    21    24 1   
    41    21    40 1   
    42    21    41 1   
@<TRIPOS>SUBSTRUCTURE
     1 P1C         1 TEMP              0 ****  ****    0 ROOT
