@<TRIPOS>MOLECULE
P1D
   39    42     1     0     0
SMALL
No Charge or Current Charge


@<TRIPOS>ATOM
      1 O3           4.9530    -0.9590     0.3210 o          1 P1D      -0.927833
      2 P            3.7720    -1.8670     0.4010 p5         1 P1D       1.299500
      3 O4           4.2370    -3.2430     0.7410 o          1 P1D      -0.927833
      4 O2           2.8150    -1.3950     1.4420 o          1 P1D      -0.927833
      5 C1P          2.9770    -1.9650    -1.2430 c3         1 P1D      -0.400400
      6 C1           2.0000    -0.8660    -1.6400 c5         1 P1D       0.447300
      7 O1           2.5030     0.4400    -1.3410 os         1 P1D      -0.459000
      8 O8           0.7860    -0.9540    -0.8960 os         1 P1D      -0.446000
      9 C2           0.1400     0.3150    -1.1190 c5         1 P1D       0.135300
     10 C3           1.3430     1.3020    -1.2770 c5         1 P1D       0.123300
     11 C4           1.3710     2.0380     0.0930 c5         1 P1D       0.125300
     12 C5           1.9830     3.4630     0.0420 c3         1 P1D       0.176600
     13 O5           2.1560     4.0080     1.3600 oh         1 P1D      -0.688000
     14 O7          -0.0230     2.0720     0.4860 os         1 P1D      -0.474000
     15 C7          -0.5790     0.7670     0.1930 c5         1 P1D       0.190600
     16 C9          -2.0770     0.8660    -0.0040 cc         1 P1D      -0.067300
     17 C8          -2.8380     1.9230    -0.4310 cd         1 P1D      -0.155000
     18 N7          -4.1670     1.4600    -0.4330 na         1 P1D      -0.095000
     19 C12         -4.1920     0.1200    -0.0030 cd         1 P1D      -0.317600
     20 C11         -2.9060    -0.2380     0.2600 cc         1 P1D       0.141400
     21 N3          -2.5440    -1.4880     0.7090 nc         1 P1D      -0.477100
     22 C10         -3.5640    -2.3350     0.8660 cd         1 P1D       0.427800
     23 N1          -4.8810    -2.0210     0.6130 ns         1 P1D      -0.427400
     24 C6          -5.3100    -0.8090     0.1710 c          1 P1D       0.595600
     25 O6          -6.4830    -0.5490    -0.0480 o          1 P1D      -0.617000
     26 H1P1         2.4710    -2.9340    -1.2950 hc         1 P1D       0.027200
     27 H1P2         3.7900    -2.0050    -1.9750 hc         1 P1D       0.027200
     28 H1           1.7690    -0.9350    -2.7110 h2         1 P1D      -0.035300
     29 H2          -0.5040     0.2720    -2.0070 h1         1 P1D       0.018700
     30 H3           1.2710     1.9560    -2.1570 h1         1 P1D       0.014700
     31 H4           1.9420     1.4440     0.8220 h1         1 P1D       0.189700
     32 H5'1         1.3320     4.1130    -0.5580 h1         1 P1D       0.000700
     33 H5'2         2.9550     3.4090    -0.4650 h1         1 P1D       0.000700
     34 H5           2.4880     4.9270     1.2450 ho         1 P1D       0.463000
     35 H6          -0.3400     0.0760     1.0160 h1         1 P1D       0.194700
     36 H8          -2.5540     2.9280    -0.7230 h4         1 P1D       0.153000
     37 HN7         -4.9810     2.0080    -0.7020 hn         1 P1D       0.342000
     38 H7          -3.4260    -3.3520     1.2120 h5         1 P1D       0.042800
     39 HN1         -5.5980    -2.7170     0.7560 hn         1 P1D       0.305500
@<TRIPOS>BOND
     1     1     2 1   
     2     2     3 1   
     3     2     4 1   
     4     2     5 1   
     5     5     6 1   
     6     5    26 1   
     7     5    27 1   
     8     6     7 1   
     9     6     8 1   
    10     6    28 1   
    11     7    10 1   
    12     8     9 1   
    13     9    10 1   
    14     9    15 1   
    15     9    29 1   
    16    10    11 1   
    17    10    30 1   
    18    11    12 1   
    19    11    14 1   
    20    11    31 1   
    21    12    13 1   
    22    12    32 1   
    23    12    33 1   
    24    13    34 1   
    25    14    15 1   
    26    15    16 1   
    27    15    35 1   
    28    16    17 2   
    29    16    20 1   
    30    17    18 1   
    31    17    36 1   
    32    18    19 1   
    33    18    37 1   
    34    19    20 2   
    35    19    24 1   
    36    20    21 1   
    37    21    22 2   
    38    22    23 1   
    39    22    38 1   
    40    23    24 1   
    41    23    39 1   
    42    24    25 2   
@<TRIPOS>SUBSTRUCTURE
     1 P1D         1 TEMP              0 ****  ****    0 ROOT
