@<TRIPOS>MOLECULE
P1D
   39    42     1     0     0
SMALL
bcc


@<TRIPOS>ATOM
      1 O3           3.7760    -0.1970     1.0880 o          1 P1D      -0.927833
      2 P            3.1010    -1.5600     0.8830 p5         1 P1D       1.141700
      3 O4           4.0020    -2.7390     1.2880 o          1 P1D      -0.927833
      4 O2           1.6870    -1.6550     1.4690 o          1 P1D      -0.927833
      5 C1P          2.9540    -1.8250    -0.9710 c3         1 P1D      -0.242600
      6 C1           2.0940    -0.9300    -1.8360 c5         1 P1D       0.400900
      7 O1           2.4900     0.4230    -1.7830 os         1 P1D      -0.412600
      8 O8           0.7360    -0.9830    -1.4700 os         1 P1D      -0.399600
      9 C2           0.2010     0.3030    -1.3420 c5         1 P1D       0.112100
     10 C3           1.3970     1.2460    -1.4840 c5         1 P1D       0.100100
     11 C4           1.5000     1.9360    -0.1180 c5         1 P1D       0.102100
     12 C5           1.9070     3.3830    -0.2360 c3         1 P1D       0.153400
     13 O5           2.0180     3.9520     1.0470 oh         1 P1D      -0.565800
     14 O7           0.1950     1.8510     0.4270 os         1 P1D      -0.427600
     15 C7          -0.3470     0.5910     0.0740 c5         1 P1D       0.167400
     16 C9          -1.8300     0.6850     0.1500 cc         1 P1D      -0.067300
     17 C8          -2.5930     1.8310     0.1010 cd         1 P1D      -0.122300
     18 N7          -3.9090     1.5110     0.1660 na         1 P1D      -0.146100
     19 C12         -4.0310     0.1630     0.2560 cd         1 P1D      -0.266900
     20 C11         -2.7500    -0.3870     0.2510 cc         1 P1D       0.141400
     21 N3          -2.5160    -1.7310     0.3310 nc         1 P1D      -0.477100
     22 C10         -3.5740    -2.4570     0.4160 cd         1 P1D       0.427800
     23 N1          -4.8490    -1.9800     0.4270 ns         1 P1D      -0.494400
     24 C6          -5.2040    -0.6400     0.3500 c          1 P1D       0.738100
     25 O6          -6.3700    -0.2710     0.3640 o          1 P1D      -0.692500
     26 H1P1         2.6060    -2.8500    -1.1430 hc         1 P1D       0.027200
     27 H1P2         3.9640    -1.7990    -1.3970 hc         1 P1D       0.027200
     28 H1           2.1780    -1.2600    -2.8860 h2         1 P1D      -0.035300
     29 H2          -0.5650     0.4760    -2.1080 h1         1 P1D       0.018700
     30 H3           1.2510     1.9780    -2.2870 h1         1 P1D       0.014700
     31 H4           2.2260     1.3780     0.4910 h1         1 P1D       0.189700
     32 H5'1         1.1710     3.9150    -0.8560 h1         1 P1D       0.000700
     33 H5'2         2.8610     3.4140    -0.7790 h1         1 P1D       0.000700
     34 H5           2.3150     4.8610     0.9450 ho         1 P1D       0.364000
     35 H6           0.0410    -0.2060     0.7240 h1         1 P1D       0.194700
     36 H8          -2.2840     2.8610     0.0280 h4         1 P1D       0.171000
     37 HN7         -4.6680     2.1720     0.1580 hn         1 P1D       0.291700
     38 H7          -3.4910    -3.5340     0.4850 h5         1 P1D       0.042800
     39 HN1         -5.6010    -2.6510     0.4980 hn         1 P1D       0.305500
@<TRIPOS>BOND
     1     1     2 1   
     2     2     3 1   
     3     2     4 1   
     4     2     5 1   
     5     5     6 1   
     6     5    26 1   
     7     5    27 1   
     8     6     7 1   
     9     6     8 1   
    10     6    28 1   
    11     7    10 1   
    12     8     9 1   
    13     9    10 1   
    14     9    15 1   
    15     9    29 1   
    16    10    11 1   
    17    10    30 1   
    18    11    12 1   
    19    11    14 1   
    20    11    31 1   
    21    12    13 1   
    22    12    32 1   
    23    12    33 1   
    24    13    34 1   
    25    14    15 1   
    26    15    16 1   
    27    15    35 1   
    28    16    17 2   
    29    16    20 1   
    30    17    18 1   
    31    17    36 1   
    32    18    19 1   
    33    18    37 1   
    34    19    20 2   
    35    19    24 1   
    36    20    21 1   
    37    21    22 2   
    38    22    23 1   
    39    22    38 1   
    40    23    24 1   
    41    23    39 1   
    42    24    25 2   
@<TRIPOS>SUBSTRUCTURE
     1 P1D         1 TEMP              0 ****  ****    0 ROOT
