@<TRIPOS>MOLECULE
P1E
   56    58     1     0     0
SMALL
No Charge or Current Charge


@<TRIPOS>ATOM
      1 C4           2.3300     0.4700     0.5770 ca         1 P1E       0.374000
      2 C6           4.3050    -0.3990    -0.5650 ca         1 P1E       0.015000
      3 C9          -0.1140    -0.3120     0.5520 ca         1 P1E       0.443900
      4 C13         -0.9300    -2.3840     0.0680 ca         1 P1E       0.226900
      5 F22         -3.0680    -4.1150    -0.2320 f          1 P1E      -0.117000
      6 F16         -4.2670    -2.4390    -0.9000 f          1 P1E      -0.117000
      7 F21         -4.1680    -2.9340     1.2140 f          1 P1E      -0.117000
      8 C12         -2.2450    -1.9110     0.2450 ca         1 P1E      -0.440300
      9 N14          0.1380    -1.5860     0.2240 nb         1 P1E      -0.266000
     10 C11         -2.3820    -0.5570     0.5890 ca         1 P1E       0.474900
     11 N8          -3.6410    -0.0040     0.8020 nu         1 P1E      -0.910100
     12 C25         -3.7900     1.4120     0.3250 c5         1 P1E       0.230500
     13 C28         -3.7130     2.2810     1.6300 c5         1 P1E      -0.089400
     14 C31         -5.1770     2.7390     1.8780 c5         1 P1E      -0.084400
     15 C27         -5.6920     2.9210     0.4300 c5         1 P1E      -0.080400
     16 C24         -5.2890     1.5450    -0.1720 c5         1 P1E       0.163500
     17 N26         -5.3260     1.6440    -1.6770 n3         1 P1E      -0.709600
     18 C30         -4.7680     0.4660    -2.3870 c3         1 P1E       0.146600
     19 C29         -6.6490     2.0060    -2.2470 c3         1 P1E       0.146600
     20 N10         -1.3120     0.2380     0.7570 nb         1 P1E      -0.338000
     21 N7           0.9480     0.5490     0.7640 nu         1 P1E      -0.925900
     22 C5           2.9110    -0.3600    -0.3980 ca         1 P1E      -0.177500
     23 C3           3.1580     1.2810     1.3680 ca         1 P1E      -0.177500
     24 C2           4.5530     1.2500     1.2120 ca         1 P1E       0.015000
     25 C1           5.1310     0.4050     0.2450 ca         1 P1E      -0.351500
     26 S18          6.9170     0.3740     0.0390 sy         1 P1E       1.152600
     27 O19          7.5480     0.5940     1.3420 o          1 P1E      -0.535000
     28 O20          7.3080    -0.7160    -0.8560 o          1 P1E      -0.535000
     29 N17          7.1790     1.7830    -0.8160 n7         1 P1E      -0.856300
     30 C23          6.2910     2.0820    -1.9560 c3         1 P1E       0.179100
     31 H6           4.7340    -1.0480    -1.3280 ha         1 P1E       0.135500
     32 H13         -0.7160    -3.4190    -0.1970 h4         1 P1E       0.038100
     33 HN8         -4.4010    -0.6590     0.6520 hn         1 P1E       0.508000
     34 H25         -3.0680     1.7370    -0.4410 h1         1 P1E       0.095700
     35 H28         -3.2930     1.7560     2.4960 hc         1 P1E       0.058200
     36 H28A        -3.0680     3.1490     1.4560 hc         1 P1E       0.058200
     37 H31         -5.7520     1.9770     2.4180 hc         1 P1E       0.048700
     38 H31A        -5.2310     3.6650     2.4620 hc         1 P1E       0.048700
     39 H27         -6.7730     3.0950     0.4050 hc         1 P1E       0.056200
     40 H27A        -5.2010     3.7620    -0.0760 hc         1 P1E       0.056200
     41 H24         -5.9390     0.7430     0.2080 h1         1 P1E       0.020700
     42 H30         -5.3790    -0.4260    -2.1950 h1         1 P1E       0.034200
     43 H30A        -4.7510     0.6390    -3.4720 h1         1 P1E       0.034200
     44 H30B        -3.7380     0.2530    -2.0750 h1         1 P1E       0.034200
     45 H29         -6.9910     2.9830    -1.8840 h1         1 P1E       0.034200
     46 H29A        -6.5980     2.0680    -3.3420 h1         1 P1E       0.034200
     47 H29B        -7.4060     1.2550    -1.9820 h1         1 P1E       0.034200
     48 HN7          0.6500     1.4030     1.2310 hn         1 P1E       0.515000
     49 H5           2.2890    -0.9650    -1.0480 ha         1 P1E       0.136500
     50 H3           2.7220     1.9350     2.1170 ha         1 P1E       0.136500
     51 H2           5.1800     1.8850     1.8370 ha         1 P1E       0.135500
     52 HN17         8.1220     1.6140    -1.1640 hn         1 P1E       0.477000
     53 H23          6.2680     1.2510    -2.6750 h1         1 P1E       0.050367
     54 H23A         5.2620     2.2750    -1.6230 h1         1 P1E       0.050367
     55 H23B         6.6370     2.9770    -2.4890 h1         1 P1E       0.050367
     56 C15         -3.4350    -2.8520     0.0810 c3         1 P1E       0.381300
@<TRIPOS>BOND
     1     1    21 1   
     2     1    22 ar  
     3     1    23 ar  
     4     2    22 ar  
     5     2    25 ar  
     6     2    31 1   
     7     3     9 ar  
     8     3    20 ar  
     9     3    21 1   
    10     4     8 ar  
    11     4     9 ar  
    12     4    32 1   
    13     5    56 1   
    14     6    56 1   
    15     7    56 1   
    16     8    10 ar  
    17     8    56 1   
    18    10    11 1   
    19    10    20 ar  
    20    11    12 1   
    21    11    33 1   
    22    12    13 1   
    23    12    16 1   
    24    12    34 1   
    25    13    14 1   
    26    13    35 1   
    27    13    36 1   
    28    14    15 1   
    29    14    37 1   
    30    14    38 1   
    31    15    16 1   
    32    15    39 1   
    33    15    40 1   
    34    16    17 1   
    35    16    41 1   
    36    17    18 1   
    37    17    19 1   
    38    18    42 1   
    39    18    43 1   
    40    18    44 1   
    41    19    45 1   
    42    19    46 1   
    43    19    47 1   
    44    21    48 1   
    45    22    49 1   
    46    23    24 ar  
    47    23    50 1   
    48    24    25 ar  
    49    24    51 1   
    50    25    26 1   
    51    26    27 2   
    52    26    28 2   
    53    26    29 1   
    54    29    30 1   
    55    29    52 1   
    56    30    53 1   
    57    30    54 1   
    58    30    55 1   
@<TRIPOS>SUBSTRUCTURE
     1 P1E         1 TEMP              0 ****  ****    0 ROOT
