@<TRIPOS>MOLECULE
P1E
   56    58     1     0     0
SMALL
abcg2


@<TRIPOS>ATOM
      1 C4           2.2240     0.4850     0.4100 ca         1 P1E       0.374000
      2 C6           4.3060    -0.6490    -0.0210 ca         1 P1E       0.015000
      3 C9          -0.1360    -0.3490     0.3770 ca         1 P1E       0.443900
      4 C13         -0.8400    -2.4750     0.2690 ca         1 P1E       0.226900
      5 F22         -2.8100    -4.3340     0.1930 f          1 P1E      -0.117000
      6 F16         -4.0240    -2.9220    -0.8860 f          1 P1E      -0.117000
      7 F21         -4.0950    -2.9760     1.2590 f          1 P1E      -0.117000
      8 C12         -2.1590    -2.0840     0.2730 ca         1 P1E      -0.440300
      9 N14          0.1880    -1.6340     0.3160 nb         1 P1E      -0.266000
     10 C11         -2.3950    -0.6780     0.3210 ca         1 P1E       0.474900
     11 N8          -3.6160    -0.1360     0.2880 nu         1 P1E      -0.910100
     12 C25         -3.8560     1.2960     0.2980 c5         1 P1E       0.230500
     13 C28         -3.8220     1.9120     1.7120 c5         1 P1E      -0.089400
     14 C31         -5.2800     2.2170     2.0420 c5         1 P1E      -0.084400
     15 C27         -5.8400     2.6470     0.6920 c5         1 P1E      -0.080400
     16 C24         -5.2590     1.6130    -0.2770 c5         1 P1E       0.163500
     17 N26         -5.2070     2.0550    -1.6590 n3         1 P1E      -0.709600
     18 C30         -4.6900     1.0260    -2.5400 c3         1 P1E       0.146600
     19 C29         -6.5020     2.5030    -2.1330 c3         1 P1E       0.146600
     20 N10         -1.3630     0.1570     0.3860 nb         1 P1E      -0.338000
     21 N7           0.8470     0.5930     0.4570 nu         1 P1E      -0.925900
     22 C5           2.9240    -0.6660     0.0320 ca         1 P1E      -0.177500
     23 C3           2.9500     1.6370     0.7410 ca         1 P1E      -0.177500
     24 C2           4.3290     1.6480     0.6960 ca         1 P1E       0.015000
     25 C1           5.0120     0.5000     0.3090 ca         1 P1E      -0.351500
     26 S18          6.7710     0.5190     0.1770 sy         1 P1E       1.152600
     27 O19          7.2680     1.5790     1.0390 o          1 P1E      -0.535000
     28 O20          7.2580    -0.8420     0.3380 o          1 P1E      -0.535000
     29 N17          7.1430     0.9500    -1.3690 n7         1 P1E      -0.856300
     30 C23          6.7290     2.2630    -1.8440 c3         1 P1E       0.179100
     31 H6           4.8230    -1.5500    -0.3220 ha         1 P1E       0.135500
     32 H13         -0.5770    -3.5250     0.2250 h4         1 P1E       0.038100
     33 HN8         -4.4290    -0.7280     0.2870 hn         1 P1E       0.508000
     34 H25         -3.0970     1.7660    -0.3280 h1         1 P1E       0.095700
     35 H28         -3.3320     1.2580     2.4340 hc         1 P1E       0.058200
     36 H28A        -3.2500     2.8420     1.6830 hc         1 P1E       0.058200
     37 H31         -5.7940     1.3170     2.3910 hc         1 P1E       0.048700
     38 H31A        -5.3950     2.9780     2.8140 hc         1 P1E       0.048700
     39 H27         -6.9290     2.6800     0.6700 hc         1 P1E       0.056200
     40 H27A        -5.4680     3.6430     0.4320 hc         1 P1E       0.056200
     41 H24         -5.8870     0.7020    -0.1930 h1         1 P1E       0.020700
     42 H30         -5.3110     0.1160    -2.5530 h1         1 P1E       0.034200
     43 H30A        -4.6430     1.4090    -3.5600 h1         1 P1E       0.034200
     44 H30B        -3.6800     0.7340    -2.2560 h1         1 P1E       0.034200
     45 H29         -6.8510     3.3620    -1.5620 h1         1 P1E       0.034200
     46 H29A        -6.4190     2.8170    -3.1750 h1         1 P1E       0.034200
     47 H29B        -7.2770     1.7230    -2.0800 h1         1 P1E       0.034200
     48 HN7          0.4880     1.5280     0.5920 hn         1 P1E       0.515000
     49 H5           2.3960    -1.5710    -0.2200 ha         1 P1E       0.136500
     50 H3           2.4250     2.5340     1.0460 ha         1 P1E       0.136500
     51 H2           4.8570     2.5490     0.9750 ha         1 P1E       0.135500
     52 HN17         6.9470     0.2000    -2.0210 hn         1 P1E       0.477000
     53 H23          5.6460     2.4110    -1.8270 h1         1 P1E       0.050367
     54 H23A         7.2050     3.0440    -1.2570 h1         1 P1E       0.050367
     55 H23B         7.0680     2.3610    -2.8720 h1         1 P1E       0.050367
     56 C15         -3.2580    -3.0770     0.2090 c3         1 P1E       0.381300
@<TRIPOS>BOND
     1     1    21 1   
     2     1    22 ar  
     3     1    23 ar  
     4     2    22 ar  
     5     2    25 ar  
     6     2    31 1   
     7     3     9 ar  
     8     3    20 ar  
     9     3    21 1   
    10     4     8 ar  
    11     4     9 ar  
    12     4    32 1   
    13     5    56 1   
    14     6    56 1   
    15     7    56 1   
    16     8    10 ar  
    17     8    56 1   
    18    10    11 1   
    19    10    20 ar  
    20    11    12 1   
    21    11    33 1   
    22    12    13 1   
    23    12    16 1   
    24    12    34 1   
    25    13    14 1   
    26    13    35 1   
    27    13    36 1   
    28    14    15 1   
    29    14    37 1   
    30    14    38 1   
    31    15    16 1   
    32    15    39 1   
    33    15    40 1   
    34    16    17 1   
    35    16    41 1   
    36    17    18 1   
    37    17    19 1   
    38    18    42 1   
    39    18    43 1   
    40    18    44 1   
    41    19    45 1   
    42    19    46 1   
    43    19    47 1   
    44    21    48 1   
    45    22    49 1   
    46    23    24 ar  
    47    23    50 1   
    48    24    25 ar  
    49    24    51 1   
    50    25    26 1   
    51    26    27 2   
    52    26    28 2   
    53    26    29 1   
    54    29    30 1   
    55    29    52 1   
    56    30    53 1   
    57    30    54 1   
    58    30    55 1   
@<TRIPOS>SUBSTRUCTURE
     1 P1E         1 TEMP              0 ****  ****    0 ROOT
