@<TRIPOS>MOLECULE
P1F
   44    45     1     0     0
SMALL
No Charge or Current Charge


@<TRIPOS>ATOM
      1 O17         -0.9820    -0.5040     3.0510 oh         1 P1F      -0.530100
      2 C6          -0.4890    -0.0800     1.8520 ca         1 P1F       0.140100
      3 C1           0.8370     0.3750     1.7640 ca         1 P1F      -0.144000
      4 C2           1.3570     0.8150     0.5320 ca         1 P1F      -0.038300
      5 C16          2.7970     1.3020     0.4370 c3         1 P1F      -0.034100
      6 C17          3.7790     0.1520     0.1260 c3         1 P1F      -0.072400
      7 C18          5.2470     0.6190     0.0230 c3         1 P1F      -0.076400
      8 C19          6.2270    -0.5340    -0.2880 c3         1 P1F      -0.075400
      9 C20          7.6960    -0.0670    -0.3910 c3         1 P1F      -0.075400
     10 C21          8.6740    -1.2170    -0.7010 c3         1 P1F      -0.088100
     11 C3           0.5390     0.7870    -0.6140 ca         1 P1F      -0.140000
     12 C4          -0.7890     0.3320    -0.5310 ca         1 P1F      -0.074000
     13 C5          -1.3110    -0.0930     0.7080 ca         1 P1F      -0.002900
     14 O7          -2.6080    -0.5560     0.8100 os         1 P1F      -0.272200
     15 C8          -3.6620    -0.0040     0.1020 ca         1 P1F       0.054100
     16 C9          -3.7560     1.3960    -0.0480 ca         1 P1F      -0.133000
     17 C10         -4.8350     1.9580    -0.7520 ca         1 P1F      -0.125000
     18 C11         -5.8260     1.1280    -1.3010 ca         1 P1F      -0.094000
     19 C12         -5.7430    -0.2670    -1.1430 ca         1 P1F      -0.160000
     20 C13         -4.6690    -0.8420    -0.4430 ca         1 P1F       0.272000
     21 NAB         -4.6180    -2.2120    -0.3030 nv         1 P1F      -1.059000
     22 H17         -1.9140    -0.7730     2.8950 ho         1 P1F       0.478000
     23 H1           1.4610     0.3840     2.6540 ha         1 P1F       0.130000
     24 H161         2.8830     2.0700    -0.3420 hc         1 P1F       0.048700
     25 H162         3.0930     1.7850     1.3760 hc         1 P1F       0.048700
     26 H3           0.9350     1.1130    -1.5740 ha         1 P1F       0.119000
     27 H171         3.6960    -0.6110     0.9100 hc         1 P1F       0.044200
     28 H172         3.4840    -0.3250    -0.8170 hc         1 P1F       0.044200
     29 H181         5.3290     1.3820    -0.7610 hc         1 P1F       0.036700
     30 H182         5.5410     1.0970     0.9660 hc         1 P1F       0.036700
     31 H191         6.1460    -1.2970     0.4970 hc         1 P1F       0.038700
     32 H192         5.9340    -1.0110    -1.2310 hc         1 P1F       0.038700
     33 H201         7.7810     0.6950    -1.1760 hc         1 P1F       0.036700
     34 H202         7.9930     0.4090     0.5510 hc         1 P1F       0.036700
     35 H211         9.7010    -0.8380    -0.7650 hc         1 P1F       0.031700
     36 H212         8.6370    -1.9800     0.0860 hc         1 P1F       0.031700
     37 H213         8.4230    -1.6920    -1.6570 hc         1 P1F       0.031700
     38 H4          -1.4060     0.3060    -1.4260 ha         1 P1F       0.131000
     39 H9          -2.9990     2.0460     0.3830 ha         1 P1F       0.126000
     40 H10         -4.9040     3.0380    -0.8690 ha         1 P1F       0.116000
     41 H11         -6.6610     1.5650    -1.8450 ha         1 P1F       0.113000
     42 H12         -6.5180    -0.9000    -1.5680 ha         1 P1F       0.114000
     43 HAB1        -3.9050    -2.6200     0.2980 hn         1 P1F       0.448500
     44 HAB2        -5.4220    -2.7860    -0.5510 hn         1 P1F       0.448500
@<TRIPOS>BOND
     1     1     2 1   
     2     1    22 1   
     3     2     3 ar  
     4     2    13 ar  
     5     3     4 ar  
     6     3    23 1   
     7     4     5 1   
     8     4    11 ar  
     9     5     6 1   
    10     5    24 1   
    11     5    25 1   
    12     6     7 1   
    13     6    27 1   
    14     6    28 1   
    15     7     8 1   
    16     7    29 1   
    17     7    30 1   
    18     8     9 1   
    19     8    31 1   
    20     8    32 1   
    21     9    10 1   
    22     9    33 1   
    23     9    34 1   
    24    10    35 1   
    25    10    36 1   
    26    10    37 1   
    27    11    12 ar  
    28    11    26 1   
    29    12    13 ar  
    30    12    38 1   
    31    13    14 1   
    32    14    15 1   
    33    15    16 ar  
    34    15    20 ar  
    35    16    17 ar  
    36    16    39 1   
    37    17    18 ar  
    38    17    40 1   
    39    18    19 ar  
    40    18    41 1   
    41    19    20 ar  
    42    19    42 1   
    43    20    21 1   
    44    21    43 1   
    45    21    44 1   
@<TRIPOS>SUBSTRUCTURE
     1 P1F         1 TEMP              0 ****  ****    0 ROOT
