@<TRIPOS>MOLECULE
P1F
   44    45     1     0     0
SMALL
bcc


@<TRIPOS>ATOM
      1 O17         -1.1300    -0.5530     2.3810 oh         1 P1F      -0.491100
      2 C6          -0.5730    -0.2460     1.1950 ca         1 P1F       0.140100
      3 C1           0.7170     0.2730     1.1730 ca         1 P1F      -0.162000
      4 C2           1.3320     0.6200    -0.0250 ca         1 P1F      -0.038300
      5 C16          2.7340     1.1610    -0.0260 c3         1 P1F      -0.034100
      6 C17          3.7960     0.0600    -0.0350 c3         1 P1F      -0.072400
      7 C18          5.2110     0.6250    -0.0440 c3         1 P1F      -0.076400
      8 C19          6.2930    -0.4460    -0.0470 c3         1 P1F      -0.075400
      9 C20          7.7030     0.1310    -0.0570 c3         1 P1F      -0.075400
     10 C21          8.7840    -0.9410    -0.0580 c3         1 P1F      -0.088100
     11 C3           0.6420     0.4230    -1.2200 ca         1 P1F      -0.158000
     12 C4          -0.6440    -0.0950    -1.2120 ca         1 P1F      -0.092000
     13 C5          -1.2480    -0.4250    -0.0120 ca         1 P1F      -0.002900
     14 O7          -2.5160    -0.9550     0.0250 os         1 P1F      -0.272200
     15 C8          -3.5890    -0.1020    -0.0840 ca         1 P1F       0.054100
     16 C9          -3.4930     1.2740     0.0220 ca         1 P1F      -0.151000
     17 C10         -4.6340     2.0640    -0.0850 ca         1 P1F      -0.143000
     18 C11         -5.8640     1.4610    -0.2900 ca         1 P1F      -0.112000
     19 C12         -5.9570     0.0790    -0.3870 ca         1 P1F      -0.178000
     20 C13         -4.8270    -0.7330    -0.2900 ca         1 P1F       0.133600
     21 NAB         -4.9030    -2.1030    -0.4500 nv         1 P1F      -0.810200
     22 H17         -1.9800    -0.9900     2.2490 ho         1 P1F       0.439000
     23 H1           1.2370     0.4180     2.1130 ha         1 P1F       0.148000
     24 H161         2.8770     1.8020    -0.9000 hc         1 P1F       0.048700
     25 H162         2.8850     1.7960     0.8510 hc         1 P1F       0.048700
     26 H3           1.1060     0.6830    -2.1630 ha         1 P1F       0.137000
     27 H171         3.6620    -0.5830     0.8410 hc         1 P1F       0.044200
     28 H172         3.6500    -0.5810    -0.9110 hc         1 P1F       0.044200
     29 H181         5.3350     1.2700    -0.9210 hc         1 P1F       0.036700
     30 H182         5.3450     1.2750     0.8280 hc         1 P1F       0.036700
     31 H191         6.1710    -1.0910     0.8300 hc         1 P1F       0.038700
     32 H192         6.1620    -1.0960    -0.9200 hc         1 P1F       0.038700
     33 H201         7.8230     0.7750    -0.9330 hc         1 P1F       0.036700
     34 H202         7.8310     0.7820     0.8140 hc         1 P1F       0.036700
     35 H211         9.7830    -0.5040    -0.0630 hc         1 P1F       0.031700
     36 H212         8.7070    -1.5790     0.8240 hc         1 P1F       0.031700
     37 H213         8.7000    -1.5830    -0.9370 hc         1 P1F       0.031700
     38 H4          -1.1830    -0.2430    -2.1390 ha         1 P1F       0.149000
     39 H9          -2.5310     1.7440     0.1850 ha         1 P1F       0.144000
     40 H10         -4.5500     3.1390    -0.0060 ha         1 P1F       0.134000
     41 H11         -6.7600     2.0630    -0.3740 ha         1 P1F       0.131000
     42 H12         -6.9220    -0.3870    -0.5490 ha         1 P1F       0.132000
     43 HAB1        -4.1900    -2.6440     0.0140 hn         1 P1F       0.393300
     44 HAB2        -5.8180    -2.4920    -0.2830 hn         1 P1F       0.393300
@<TRIPOS>BOND
     1     1     2 1   
     2     1    22 1   
     3     2     3 ar  
     4     2    13 ar  
     5     3     4 ar  
     6     3    23 1   
     7     4     5 1   
     8     4    11 ar  
     9     5     6 1   
    10     5    24 1   
    11     5    25 1   
    12     6     7 1   
    13     6    27 1   
    14     6    28 1   
    15     7     8 1   
    16     7    29 1   
    17     7    30 1   
    18     8     9 1   
    19     8    31 1   
    20     8    32 1   
    21     9    10 1   
    22     9    33 1   
    23     9    34 1   
    24    10    35 1   
    25    10    36 1   
    26    10    37 1   
    27    11    12 ar  
    28    11    26 1   
    29    12    13 ar  
    30    12    38 1   
    31    13    14 1   
    32    14    15 1   
    33    15    16 ar  
    34    15    20 ar  
    35    16    17 ar  
    36    16    39 1   
    37    17    18 ar  
    38    17    40 1   
    39    18    19 ar  
    40    18    41 1   
    41    19    20 ar  
    42    19    42 1   
    43    20    21 1   
    44    21    43 1   
    45    21    44 1   
@<TRIPOS>SUBSTRUCTURE
     1 P1F         1 TEMP              0 ****  ****    0 ROOT
