@<TRIPOS>MOLECULE
P1G
   40    43     1     0     0
SMALL
bcc


@<TRIPOS>ATOM
      1 O3           3.9060     0.4180    -1.0770 o          1 P1G      -0.925833
      2 P            3.1460     1.6130    -0.4880 p5         1 P1G       1.144700
      3 O4           3.8590     2.9520    -0.7280 o          1 P1G      -0.925833
      4 O2           1.6560     1.6460    -0.8520 o          1 P1G      -0.925833
      5 C1P          3.2520     1.4490     1.3790 c3         1 P1G      -0.249600
      6 C1           2.5580     0.3220     2.1110 c5         1 P1G       0.400900
      7 O1           2.9530    -0.9560     1.6620 os         1 P1G      -0.410600
      8 O8           1.1530     0.3900     1.9860 os         1 P1G      -0.404600
      9 C2           0.6300    -0.8270     1.5440 c5         1 P1G       0.090100
     10 C3           1.8450    -1.7090     1.2600 c5         1 P1G       0.102100
     11 C4           1.7880    -1.9730    -0.2520 c5         1 P1G       0.108100
     12 C5           2.1640    -3.3920    -0.5950 c3         1 P1G       0.152400
     13 O5           2.1270    -3.5670    -1.9910 oh         1 P1G      -0.561800
     14 O7           0.4310    -1.7440    -0.6150 os         1 P1G      -0.419600
     15 C7          -0.0830    -0.7080     0.1830 c5         1 P1G       0.207800
     16 N9          -1.5090    -0.9020     0.2580 na         1 P1G      -0.158900
     17 C8          -2.1550    -2.0540     0.6330 cc         1 P1G       0.402400
     18 N7          -3.4470    -1.9450     0.6000 nd         1 P1G      -0.651000
     19 C11         -3.6740    -0.6580     0.1830 cd         1 P1G       0.121800
     20 C10         -2.4790     0.0030    -0.0380 cc         1 P1G       0.156800
     21 N3          -2.2920     1.2630    -0.4520 nc         1 P1G      -0.606100
     22 C9          -3.4110     1.9100    -0.6570 cd         1 P1G       0.707800
     23 N2          -3.3800     3.1930    -1.0400 nv         1 P1G      -0.953800
     24 N1          -4.6430     1.3480    -0.4720 ns         1 P1G      -0.534400
     25 C6          -4.8950     0.0380    -0.0440 c          1 P1G       0.666000
     26 O6          -6.0410    -0.3610     0.0860 o          1 P1G      -0.657500
     27 H1P1         2.8870     2.3790     1.8300 hc         1 P1G       0.030700
     28 H1P2         4.3120     1.4000     1.6550 hc         1 P1G       0.030700
     29 H1           2.8020     0.3860     3.1840 h2         1 P1G      -0.024300
     30 H2          -0.0320    -1.2550     2.3050 h1         1 P1G       0.029700
     31 H3           1.8110    -2.6460     1.8280 h1         1 P1G       0.022700
     32 H4           2.4550    -1.2610    -0.7550 h1         1 P1G       0.195700
     33 H5'1         3.1670    -3.5730    -0.1880 h1         1 P1G       0.002200
     34 H5'2         1.4810    -4.0820    -0.0790 h1         1 P1G       0.002200
     35 H5           2.3760    -4.4740    -2.1840 ho         1 P1G       0.367000
     36 H6           0.1270     0.2840    -0.2360 h2         1 P1G       0.223700
     37 H8          -1.6130    -2.9440     0.9130 h5         1 P1G       0.052100
     38 HN21        -2.4930     3.5920    -1.2920 hn         1 P1G       0.446300
     39 HN22        -4.2040     3.6730    -1.3560 hn         1 P1G       0.446300
     40 HN1         -5.4620     1.9140    -0.6480 hn         1 P1G       0.297500
@<TRIPOS>BOND
     1     1     2 1   
     2     2     3 1   
     3     2     4 1   
     4     2     5 1   
     5     5     6 1   
     6     5    27 1   
     7     5    28 1   
     8     6     7 1   
     9     6     8 1   
    10     6    29 1   
    11     7    10 1   
    12     8     9 1   
    13     9    10 1   
    14     9    15 1   
    15     9    30 1   
    16    10    11 1   
    17    10    31 1   
    18    11    12 1   
    19    11    14 1   
    20    11    32 1   
    21    12    13 1   
    22    12    33 1   
    23    12    34 1   
    24    13    35 1   
    25    14    15 1   
    26    15    16 1   
    27    15    36 1   
    28    16    17 1   
    29    16    20 1   
    30    17    18 2   
    31    17    37 1   
    32    18    19 1   
    33    19    20 2   
    34    19    25 1   
    35    20    21 1   
    36    21    22 2   
    37    22    23 1   
    38    22    24 1   
    39    23    38 1   
    40    23    39 1   
    41    24    25 1   
    42    24    40 1   
    43    25    26 2   
@<TRIPOS>SUBSTRUCTURE
     1 P1G         1 TEMP              0 ****  ****    0 ROOT
