@<TRIPOS>MOLECULE
P1G
   40    43     1     0     0
SMALL
No Charge or Current Charge


@<TRIPOS>ATOM
      1 O3           4.9660     1.3030    -0.4240 o          1 P1G      -0.925833
      2 P            3.8430     2.0240     0.2420 p5         1 P1G       1.302500
      3 O4           4.2190     3.4560     0.4230 o          1 P1G      -0.925833
      4 O2           2.6010     1.9350    -0.5790 o          1 P1G      -0.925833
      5 C1P          3.5910     1.3240     1.9110 c3         1 P1G      -0.407400
      6 C1           2.7230     0.0800     2.0420 c5         1 P1G       0.447300
      7 O1           3.0550    -0.9090     1.0660 os         1 P1G      -0.457000
      8 O8           1.3520     0.3820     1.7830 os         1 P1G      -0.451000
      9 C2           0.7320    -0.8970     1.5400 c5         1 P1G       0.113300
     10 C3           1.9020    -1.7740     0.9830 c5         1 P1G       0.125300
     11 C4           1.5450    -1.9560    -0.5220 c5         1 P1G       0.131300
     12 C5           2.0130    -3.3030    -1.1330 c3         1 P1G       0.175600
     13 O5           1.8300    -3.3230    -2.5570 oh         1 P1G      -0.684000
     14 O7           0.1010    -1.8380    -0.5510 os         1 P1G      -0.466000
     15 C7          -0.2500    -0.7530     0.3350 c5         1 P1G       0.260300
     16 N9          -1.6810    -0.8110     0.6290 na         1 P1G      -0.137500
     17 C8          -2.3020    -1.6240     1.5570 cc         1 P1G       0.402400
     18 N7          -3.6120    -1.3900     1.6140 nd         1 P1G      -0.651000
     19 C11         -3.8390    -0.3740     0.6900 cd         1 P1G       0.056500
     20 C10         -2.6570    -0.0130     0.0900 cc         1 P1G       0.171400
     21 N3          -2.5180     0.9740    -0.8640 nc         1 P1G      -0.606100
     22 C9          -3.6550     1.5540    -1.1690 cd         1 P1G       0.707800
     23 N2          -3.5960     2.5080    -2.0850 nv         1 P1G      -1.064200
     24 N1          -4.8730     1.2850    -0.6550 ns         1 P1G      -0.467400
     25 C6          -5.0950     0.3330     0.2960 c          1 P1G       0.523500
     26 O6          -6.2120     0.1170     0.7470 o          1 P1G      -0.582000
     27 H1P1         3.1750     2.1230     2.5330 hc         1 P1G       0.030700
     28 H1P2         4.5880     1.1130     2.3110 hc         1 P1G       0.030700
     29 H1           2.8150    -0.3460     3.0490 h2         1 P1G      -0.024300
     30 H2           0.2920    -1.2990     2.4620 h1         1 P1G       0.029700
     31 H3           2.0570    -2.7080     1.5410 h1         1 P1G       0.022700
     32 H4           1.9910    -1.1400    -1.1110 h1         1 P1G       0.195700
     33 H5'1         3.0760    -3.4450    -0.8960 h1         1 P1G       0.002200
     34 H5'2         1.4550    -4.1240    -0.6640 h1         1 P1G       0.002200
     35 H5           2.0870    -4.2220    -2.8640 ho         1 P1G       0.466000
     36 H6          -0.0710     0.2140    -0.1590 h2         1 P1G       0.223700
     37 H8          -1.7590    -2.3570     2.1410 h5         1 P1G       0.052100
     38 HN21        -2.7180     2.5430    -2.5880 hn         1 P1G       0.501500
     39 HN22        -4.4240     2.6660    -2.6470 hn         1 P1G       0.501500
     40 HN1         -5.6750     1.8160    -0.9560 hn         1 P1G       0.297500
@<TRIPOS>BOND
     1     1     2 1   
     2     2     3 1   
     3     2     4 1   
     4     2     5 1   
     5     5     6 1   
     6     5    27 1   
     7     5    28 1   
     8     6     7 1   
     9     6     8 1   
    10     6    29 1   
    11     7    10 1   
    12     8     9 1   
    13     9    10 1   
    14     9    15 1   
    15     9    30 1   
    16    10    11 1   
    17    10    31 1   
    18    11    12 1   
    19    11    14 1   
    20    11    32 1   
    21    12    13 1   
    22    12    33 1   
    23    12    34 1   
    24    13    35 1   
    25    14    15 1   
    26    15    16 1   
    27    15    36 1   
    28    16    17 1   
    29    16    20 1   
    30    17    18 2   
    31    17    37 1   
    32    18    19 1   
    33    19    20 2   
    34    19    25 1   
    35    20    21 1   
    36    21    22 2   
    37    22    23 1   
    38    22    24 1   
    39    23    38 1   
    40    23    39 1   
    41    24    25 1   
    42    24    40 1   
    43    25    26 2   
@<TRIPOS>SUBSTRUCTURE
     1 P1G         1 TEMP              0 ****  ****    0 ROOT
