@<TRIPOS>MOLECULE
P1H
   91    96     1     0     0
SMALL
No Charge or Current Charge


@<TRIPOS>ATOM
      1 O9           2.5720    -2.2250    -7.7060 o          1 P1H      -0.840000
      2 P2           2.3460    -2.2940    -6.2320 p5         1 P1H       1.460800
      3 O8           1.2560    -3.2340    -5.8410 o          1 P1H      -0.840000
      4 O7           3.6840    -2.4780    -5.4320 os         1 P1H      -0.733800
      5 P1           4.3970    -3.8770    -5.5360 p5         1 P1H       1.454800
      6 O2           5.8280    -3.6840    -5.9120 o          1 P1H      -0.835500
      7 O3           4.2780    -4.2500    -3.9760 os         1 P1H      -0.596400
      8 C1           3.1050    -4.9110    -3.4720 c3         1 P1H       0.213600
      9 C2           3.4450    -6.3980    -3.1460 c5         1 P1H       0.151300
     10 C3           2.3720    -7.0880    -2.2210 c5         1 P1H       0.090300
     11 O5           1.7540    -8.2460    -2.8260 oh         1 P1H      -0.704000
     12 C4           3.1960    -7.5220    -0.9600 c5         1 P1H       0.089300
     13 O6           3.5670    -8.8980    -1.1250 oh         1 P1H      -0.718000
     14 C5           4.4200    -6.5430    -1.0170 c5         1 P1H       0.317300
     15 N1           4.2690    -5.1620    -0.5290 na         1 P1H      -0.308300
     16 C10          3.4300    -4.6390     0.4290 ca         1 P1H       0.108500
     17 N5           2.5400    -5.2330     1.2490 nb         1 P1H      -0.227000
     18 C9           1.8600    -4.4190     2.0880 ca         1 P1H       0.161900
     19 N4           1.9830    -3.0760     2.1860 nb         1 P1H      -0.326000
     20 C8           2.8770    -2.5070     1.3660 ca         1 P1H       0.443900
     21 N3           2.9790    -1.1560     1.4760 nv         1 P1H      -1.069900
     22 C7           3.6370    -3.2800     0.4540 ca         1 P1H      -0.086600
     23 N2           4.6130    -2.8770    -0.4510 nc         1 P1H      -0.621100
     24 C6           4.9950    -4.0510    -0.9970 cd         1 P1H       0.472700
     25 O4           4.7070    -6.5160    -2.4290 os         1 P1H      -0.411000
     26 O1           3.7470    -4.9070    -6.3960 o          1 P1H      -0.835500
     27 O10          2.0040    -0.8200    -5.6740 os         1 P1H      -0.570400
     28 C11          1.6290    -0.6340    -4.2990 c3         1 P1H       0.237600
     29 C12          2.8570    -0.1440    -3.4660 c5         1 P1H       0.108300
     30 C13          2.6840    -0.3530    -1.9160 c5         1 P1H       0.146300
     31 O12          3.9500    -0.3600    -1.2210 oh         1 P1H      -0.762000
     32 C14          1.8310     0.9170    -1.5970 c5         1 P1H       0.115300
     33 O13          1.6470     1.1770    -0.1870 oh         1 P1H      -0.705000
     34 C15          2.7230     1.9480    -2.3830 c5         1 P1H       0.419500
     35 O11          3.0000     1.3000    -3.6430 os         1 P1H      -0.417000
     36 N6           1.9530     3.2100    -2.5970 nh         1 P1H      -0.536200
     37 C21          2.1070     4.1680    -1.6040 c2         1 P1H       0.051000
     38 C20          1.0340     4.7930    -1.1020 c2         1 P1H      -0.346200
     39 C19         -0.3990     4.4690    -1.5340 c6         1 P1H      -0.020300
     40 C17         -0.3910     3.6580    -2.8570 ce         1 P1H      -0.332400
     41 C18         -1.6470     3.5250    -3.6570 c          1 P1H       0.636300
     42 N7          -2.6980     4.2860    -3.2930 nt         1 P1H      -0.624000
     43 O14         -1.7370     2.7940    -4.6270 o          1 P1H      -0.599100
     44 C16          0.7550     3.0950    -3.3010 c2         1 P1H       0.139000
     45 C22         -1.1490     3.6950    -0.4080 c          1 P1H       0.564700
     46 O15         -0.7650     2.5800    -0.0630 o          1 P1H      -0.505100
     47 C25         -2.3460     4.3430     0.2550 ca         1 P1H      -0.118600
     48 C24         -3.3880     3.5440     0.7710 ca         1 P1H      -0.122000
     49 C23         -4.4930     4.1540     1.3890 ca         1 P1H       0.321900
     50 C26         -2.4720     5.7410     0.4170 ca         1 P1H      -0.124000
     51 C27         -3.6140     6.2700     1.0510 ca         1 P1H       0.334300
     52 N8          -4.6130     5.4930     1.5270 nb         1 P1H      -0.672000
     53 C29         -3.7760     7.7730     1.2290 c3         1 P1H      -0.125700
     54 C28         -4.2070     8.4820    -0.0750 c3         1 P1H      -0.073400
     55 C30         -4.3700    10.0050     0.0900 c3         1 P1H      -0.089100
     56 H11          2.7410    -4.4010    -2.5710 h1         1 P1H       0.044200
     57 H12A         2.2820    -4.8970    -4.1970 h1         1 P1H       0.044200
     58 H2           3.5490    -6.9310    -4.1000 h1         1 P1H       0.088700
     59 H3           1.6040    -6.3600    -1.9200 h1         1 P1H       0.069700
     60 HO5          1.0420    -7.9270    -3.4320 ho         1 P1H       0.502000
     61 H4           2.6110    -7.4050    -0.0400 h1         1 P1H       0.074700
     62 HO6          2.9670    -9.1640    -1.8740 ho         1 P1H       0.519000
     63 H5           5.2700    -6.9600    -0.4630 h2         1 P1H       0.099700
     64 H9           1.1390    -4.8940     2.7510 h5         1 P1H       0.027100
     65 HN31         3.3090    -0.6600     0.6460 hn         1 P1H       0.513000
     66 HN32         2.2200    -0.6810     1.9510 hn         1 P1H       0.513000
     67 H61          5.7570    -4.1680    -1.7610 h5         1 P1H       0.130800
     68 H111         0.8130     0.0950    -4.2250 h1         1 P1H       0.012200
     69 H112         1.2650    -1.5740    -3.8640 h1         1 P1H       0.012200
     70 H12          3.7640    -0.6460    -3.8240 h1         1 P1H       0.111700
     71 H13          2.1240    -1.2740    -1.6940 h1         1 P1H       0.054700
     72 HO12         4.2100    -1.3190    -1.0670 ho         1 P1H       0.559000
     73 H14          0.8430     0.8190    -2.0670 h1         1 P1H       0.055700
     74 HO13         0.8530     1.7710    -0.1200 ho         1 P1H       0.502000
     75 H15          3.6640     2.1290    -1.8460 h2         1 P1H       0.071700
     76 H21          3.1300     4.3700    -1.2710 h4         1 P1H       0.199000
     77 H20          1.1530     5.5490    -0.3240 ha         1 P1H       0.180000
     78 H19         -0.9050     5.4240    -1.7180 hc         1 P1H       0.051700
     79 HN71        -3.5520     4.2290    -3.8270 hn         1 P1H       0.298000
     80 HN72        -2.6190     4.9230    -2.5170 hn         1 P1H       0.298000
     81 H161         0.8030     2.5210    -4.2330 h4         1 P1H       0.258000
     82 H24         -3.3540     2.4600     0.6920 ha         1 P1H       0.142000
     83 H231        -5.3080     3.5510     1.7860 h4         1 P1H       0.014100
     84 H261        -1.6970     6.4230     0.0800 ha         1 P1H       0.129000
     85 H291        -4.5120     7.9880     2.0140 hc         1 P1H       0.052700
     86 H292        -2.8290     8.2040     1.5750 hc         1 P1H       0.052700
     87 H281        -3.4660     8.2860    -0.8600 hc         1 P1H       0.045200
     88 H282        -5.1580     8.0570    -0.4210 hc         1 P1H       0.045200
     89 H301        -5.1330    10.2350     0.8440 hc         1 P1H       0.030033
     90 H302        -3.4240    10.4650     0.4030 hc         1 P1H       0.030033
     91 H303        -4.6760    10.4620    -0.8580 hc         1 P1H       0.030033
@<TRIPOS>BOND
     1     1     2 1   
     2     2     3 1   
     3     2     4 1   
     4     2    27 1   
     5     4     5 1   
     6     5     6 1   
     7     5     7 1   
     8     5    26 1   
     9     7     8 1   
    10     8     9 1   
    11     8    56 1   
    12     8    57 1   
    13     9    10 1   
    14     9    25 1   
    15     9    58 1   
    16    10    11 1   
    17    10    12 1   
    18    10    59 1   
    19    11    60 1   
    20    12    13 1   
    21    12    14 1   
    22    12    61 1   
    23    13    62 1   
    24    14    15 1   
    25    14    25 1   
    26    14    63 1   
    27    15    16 1   
    28    15    24 1   
    29    16    17 ar  
    30    16    22 ar  
    31    17    18 ar  
    32    18    19 ar  
    33    18    64 1   
    34    19    20 ar  
    35    20    21 1   
    36    20    22 ar  
    37    21    65 1   
    38    21    66 1   
    39    22    23 1   
    40    23    24 2   
    41    24    67 1   
    42    27    28 1   
    43    28    29 1   
    44    28    68 1   
    45    28    69 1   
    46    29    30 1   
    47    29    35 1   
    48    29    70 1   
    49    30    31 1   
    50    30    32 1   
    51    30    71 1   
    52    31    72 1   
    53    32    33 1   
    54    32    34 1   
    55    32    73 1   
    56    33    74 1   
    57    34    35 1   
    58    34    36 1   
    59    34    75 1   
    60    36    37 1   
    61    36    44 1   
    62    37    38 2   
    63    37    76 1   
    64    38    39 1   
    65    38    77 1   
    66    39    40 1   
    67    39    45 1   
    68    39    78 1   
    69    40    41 1   
    70    40    44 2   
    71    41    42 1   
    72    41    43 2   
    73    42    79 1   
    74    42    80 1   
    75    44    81 1   
    76    45    46 2   
    77    45    47 1   
    78    47    48 ar  
    79    47    50 ar  
    80    48    49 ar  
    81    48    82 1   
    82    49    52 ar  
    83    49    83 1   
    84    50    51 ar  
    85    50    84 1   
    86    51    52 ar  
    87    51    53 1   
    88    53    54 1   
    89    53    85 1   
    90    53    86 1   
    91    54    55 1   
    92    54    87 1   
    93    54    88 1   
    94    55    89 1   
    95    55    90 1   
    96    55    91 1   
@<TRIPOS>SUBSTRUCTURE
     1 P1H         1 TEMP              0 ****  ****    0 ROOT
