@<TRIPOS>MOLECULE
P1H
   91    96     1     0     0
SMALL
bcc


@<TRIPOS>ATOM
      1 O9           2.6700    -1.0970    -7.1350 o          1 P1H      -0.840000
      2 P2           2.5030    -1.9040    -5.8900 p5         1 P1H       1.460800
      3 O8           1.7000    -3.1670    -5.8600 o          1 P1H      -0.840000
      4 O7           3.9740    -2.1630    -5.1850 os         1 P1H      -0.733800
      5 P1           5.1670    -3.1060    -5.8090 p5         1 P1H       1.454800
      6 O2           6.4530    -2.3560    -5.6840 o          1 P1H      -0.835500
      7 O3           5.2530    -4.2820    -4.6630 os         1 P1H      -0.573200
      8 C1           4.1260    -5.0710    -4.3720 c3         1 P1H       0.190400
      9 C2           4.5690    -6.3590    -3.7070 c5         1 P1H       0.128100
     10 C3           3.3830    -7.1190    -3.1020 c5         1 P1H       0.067100
     11 O5           2.9560    -8.1280    -3.9750 oh         1 P1H      -0.581800
     12 C4           3.9530    -7.6560    -1.7820 c5         1 P1H       0.066100
     13 O6           4.6940    -8.8260    -1.9940 oh         1 P1H      -0.595800
     14 C5           4.9520    -6.5600    -1.4230 c5         1 P1H       0.264800
     15 N1           4.3150    -5.4320    -0.7300 na         1 P1H      -0.279000
     16 C10          3.5990    -5.4660     0.4360 ca         1 P1H       0.436800
     17 N5           3.2520    -6.5250     1.1660 nb         1 P1H      -0.753000
     18 C9           2.5530    -6.1780     2.2320 ca         1 P1H       0.687900
     19 N4           2.1740    -4.9620     2.6150 nb         1 P1H      -0.852000
     20 C8           2.5260    -3.9030     1.8760 ca         1 P1H       0.772200
     21 N3           2.1370    -2.6850     2.2530 nv         1 P1H      -0.959500
     22 C7           3.3030    -4.1440     0.7260 ca         1 P1H      -0.217200
     23 N2           3.8530    -3.3200    -0.2210 nc         1 P1H      -0.621100
     24 C6           4.4500    -4.1160    -1.0600 cd         1 P1H       0.472700
     25 O4           5.4710    -6.1060    -2.6260 os         1 P1H      -0.364600
     26 O1           4.7150    -3.6920    -7.1080 o          1 P1H      -0.835500
     27 O10          1.9150    -0.8500    -4.7760 os         1 P1H      -0.547200
     28 C11          1.5600    -1.2850    -3.4830 c3         1 P1H       0.214400
     29 C12          2.3650    -0.5360    -2.4400 c5         1 P1H       0.085100
     30 C13          1.9200    -0.8540    -1.0040 c5         1 P1H       0.123100
     31 O12          2.9750    -0.7610    -0.0870 oh         1 P1H      -0.639800
     32 C14          0.9400     0.2760    -0.7450 c5         1 P1H       0.092100
     33 O13          0.6980     0.4880     0.6100 oh         1 P1H      -0.582800
     34 C15          1.6420     1.4410    -1.4510 c5         1 P1H       0.396300
     35 O11          2.2030     0.8770    -2.6060 os         1 P1H      -0.370600
     36 N6           0.7590     2.5250    -1.7930 nh         1 P1H      -0.536200
     37 C21          0.9840     3.8000    -1.3070 c2         1 P1H       0.101000
     38 C20          0.0740     4.7680    -1.4210 c2         1 P1H      -0.296200
     39 C19         -1.3140     4.4590    -1.9300 c6         1 P1H      -0.020300
     40 C17         -1.2570     3.2520    -2.8260 ce         1 P1H      -0.332400
     41 C18         -2.3000     2.9510    -3.8280 c          1 P1H       0.703300
     42 N7          -3.3390     3.8060    -3.8850 nt         1 P1H      -0.691000
     43 O14         -2.2380     1.9670    -4.5610 o          1 P1H      -0.599100
     44 C16         -0.2890     2.3370    -2.6460 c2         1 P1H       0.189000
     45 C22         -2.1600     4.1870    -0.6850 c          1 P1H       0.564700
     46 O15         -2.4320     3.0580    -0.3530 o          1 P1H      -0.505100
     47 C25         -2.5750     5.3450     0.1670 ca         1 P1H      -0.118600
     48 C24         -3.1520     5.1010     1.4100 ca         1 P1H      -0.205300
     49 C23         -3.5430     6.1830     2.1780 ca         1 P1H       0.387200
     50 C26         -2.4290     6.6670    -0.2320 ca         1 P1H      -0.207300
     51 C27         -2.8540     7.6940     0.6090 ca         1 P1H       0.399600
     52 N8          -3.4010     7.4460     1.7950 nb         1 P1H      -0.672000
     53 C29         -2.7490     9.1300     0.1880 c3         1 P1H      -0.125700
     54 C28         -4.0930     9.6830    -0.2940 c3         1 P1H      -0.073400
     55 C30         -3.9990    11.1500    -0.6880 c3         1 P1H      -0.089100
     56 H11          3.4360    -4.5240    -3.7180 h1         1 P1H       0.044200
     57 H12A         3.5590    -5.3380    -5.2710 h1         1 P1H       0.044200
     58 H2           5.0950    -6.9890    -4.4320 h1         1 P1H       0.088700
     59 H3           2.5660    -6.4220    -2.8780 h1         1 P1H       0.069700
     60 HO5          2.0550    -8.3770    -3.7440 ho         1 P1H       0.403000
     61 H4           3.1810    -7.7950    -1.0180 h1         1 P1H       0.074700
     62 HO6          4.2610    -9.3200    -2.7020 ho         1 P1H       0.420000
     63 H5           5.7600    -6.9300    -0.7880 h2         1 P1H       0.099700
     64 H9           2.2420    -6.9880     2.8820 h5         1 P1H       0.027100
     65 HN31         2.3190    -1.8690     1.6860 hn         1 P1H       0.457800
     66 HN32         1.5500    -2.5800     3.0630 hn         1 P1H       0.457800
     67 H61          5.0020    -3.7890    -1.9270 h5         1 P1H       0.130800
     68 H111         0.4870    -1.1160    -3.3330 h1         1 P1H       0.012200
     69 H112         1.7290    -2.3580    -3.3440 h1         1 P1H       0.012200
     70 H12          3.4240    -0.7830    -2.5740 h1         1 P1H       0.111700
     71 H13          1.4300    -1.8350    -0.9510 h1         1 P1H       0.054700
     72 HO12         3.4950    -1.5920    -0.1820 ho         1 P1H       0.460000
     73 H14          0.0110     0.0460    -1.2870 h1         1 P1H       0.055700
     74 HO13        -0.0840     1.0440     0.6940 ho         1 P1H       0.403000
     75 H15          2.4110     1.8640    -0.7940 h2         1 P1H       0.071700
     76 H21          1.9620     3.9760    -0.8820 h4         1 P1H       0.149000
     77 H20          0.3180     5.7700    -1.1010 ha         1 P1H       0.130000
     78 H19         -1.6940     5.3370    -2.4610 hc         1 P1H       0.051700
     79 HN71        -4.0810     3.6390    -4.5450 hn         1 P1H       0.298000
     80 HN72        -3.4310     4.6200    -3.3060 hn         1 P1H       0.298000
     81 H161        -0.2860     1.4180    -3.2180 h4         1 P1H       0.208000
     82 H24         -3.2930     4.0950     1.7780 ha         1 P1H       0.160000
     83 H231        -3.9910     6.0210     3.1520 h4         1 P1H       0.014100
     84 H261        -1.9940     6.9320    -1.1870 ha         1 P1H       0.147000
     85 H291        -2.3960     9.7270     1.0320 hc         1 P1H       0.052700
     86 H292        -2.0080     9.2300    -0.6090 hc         1 P1H       0.052700
     87 H281        -4.4420     9.0910    -1.1440 hc         1 P1H       0.045200
     88 H282        -4.8350     9.5570     0.4980 hc         1 P1H       0.045200
     89 H301        -3.6710    11.7630     0.1540 hc         1 P1H       0.030033
     90 H302        -3.2860    11.2980    -1.5000 hc         1 P1H       0.030033
     91 H303        -4.9640    11.5340    -1.0200 hc         1 P1H       0.030033
@<TRIPOS>BOND
     1     1     2 1   
     2     2     3 1   
     3     2     4 1   
     4     2    27 1   
     5     4     5 1   
     6     5     6 1   
     7     5     7 1   
     8     5    26 1   
     9     7     8 1   
    10     8     9 1   
    11     8    56 1   
    12     8    57 1   
    13     9    10 1   
    14     9    25 1   
    15     9    58 1   
    16    10    11 1   
    17    10    12 1   
    18    10    59 1   
    19    11    60 1   
    20    12    13 1   
    21    12    14 1   
    22    12    61 1   
    23    13    62 1   
    24    14    15 1   
    25    14    25 1   
    26    14    63 1   
    27    15    16 1   
    28    15    24 1   
    29    16    17 ar  
    30    16    22 ar  
    31    17    18 ar  
    32    18    19 ar  
    33    18    64 1   
    34    19    20 ar  
    35    20    21 1   
    36    20    22 ar  
    37    21    65 1   
    38    21    66 1   
    39    22    23 1   
    40    23    24 2   
    41    24    67 1   
    42    27    28 1   
    43    28    29 1   
    44    28    68 1   
    45    28    69 1   
    46    29    30 1   
    47    29    35 1   
    48    29    70 1   
    49    30    31 1   
    50    30    32 1   
    51    30    71 1   
    52    31    72 1   
    53    32    33 1   
    54    32    34 1   
    55    32    73 1   
    56    33    74 1   
    57    34    35 1   
    58    34    36 1   
    59    34    75 1   
    60    36    37 1   
    61    36    44 1   
    62    37    38 2   
    63    37    76 1   
    64    38    39 1   
    65    38    77 1   
    66    39    40 1   
    67    39    45 1   
    68    39    78 1   
    69    40    41 1   
    70    40    44 2   
    71    41    42 1   
    72    41    43 2   
    73    42    79 1   
    74    42    80 1   
    75    44    81 1   
    76    45    46 2   
    77    45    47 1   
    78    47    48 ar  
    79    47    50 ar  
    80    48    49 ar  
    81    48    82 1   
    82    49    52 ar  
    83    49    83 1   
    84    50    51 ar  
    85    50    84 1   
    86    51    52 ar  
    87    51    53 1   
    88    53    54 1   
    89    53    85 1   
    90    53    86 1   
    91    54    55 1   
    92    54    87 1   
    93    54    88 1   
    94    55    89 1   
    95    55    90 1   
    96    55    91 1   
@<TRIPOS>SUBSTRUCTURE
     1 P1H         1 TEMP              0 ****  ****    0 ROOT
