@<TRIPOS>MOLECULE
P1J
   24    24     1     0     0
SMALL
No Charge or Current Charge


@<TRIPOS>ATOM
      1 C1          -3.3980    -0.7450    -0.1000 c3         1 P1J      -0.237400
      2 C2          -2.4660     0.4670     0.0580 c3         1 P1J       0.112000
      3 C4           1.3640     0.2950     0.0550 cc         1 P1J       0.053400
      4 C5           1.6220    -1.0520    -0.1170 cd         1 P1J      -0.376200
      5 C6           3.0000    -1.5600    -0.1750 c          1 P1J       0.589200
      6 C7           3.7680     0.7430     0.1250 c          1 P1J       0.619000
      7 N           -1.0610     0.0630     0.0130 ns         1 P1J      -0.463900
      8 C           -4.8490    -0.2610    -0.0450 c          1 P1J       0.726000
      9 O           -5.3890    -0.1870     1.0480 o          1 P1J      -0.726500
     10 C3           0.0020     0.9340     0.1300 c          1 P1J       0.583300
     11 N1           3.9490    -0.5920    -0.0460 ns         1 P1J      -0.473500
     12 N2           2.4650     1.1330     0.1680 ns         1 P1J      -0.500600
     13 O1          -5.3790     0.0840    -1.0900 o          1 P1J      -0.726500
     14 O2          -0.1690     2.1380     0.2840 o          1 P1J      -0.618100
     15 O3           3.2840    -2.7350    -0.3240 o          1 P1J      -0.540000
     16 O4           4.6910     1.5270     0.2300 o          1 P1J      -0.564000
     17 H1          -3.1700    -1.1790    -1.0820 hc         1 P1J       0.024700
     18 H2          -3.1780    -1.4110     0.7440 hc         1 P1J       0.024700
     19 H3          -2.6550     1.1890    -0.7490 h1         1 P1J       0.065200
     20 H4          -2.6630     0.9650     1.0170 h1         1 P1J       0.065200
     21 H5           0.8600    -1.8140    -0.2180 ha         1 P1J       0.223000
     22 H7          -0.8450    -0.9160    -0.1120 hn         1 P1J       0.317500
     23 H9           4.9060    -0.9050    -0.0810 hn         1 P1J       0.335500
     24 H6           2.3230     2.1320     0.2960 hn         1 P1J       0.489000
@<TRIPOS>BOND
     1     1     2 1   
     2     1     8 1   
     3     1    17 1   
     4     1    18 1   
     5     2     7 1   
     6     2    19 1   
     7     2    20 1   
     8     3     4 2   
     9     3    10 1   
    10     3    12 1   
    11     4     5 1   
    12     4    21 1   
    13     5    11 1   
    14     5    15 2   
    15     6    11 1   
    16     6    12 1   
    17     6    16 2   
    18     7    10 1   
    19     7    22 1   
    20     8     9 1   
    21     8    13 1   
    22    10    14 2   
    23    11    23 1   
    24    12    24 1   
@<TRIPOS>SUBSTRUCTURE
     1 P1J         1 TEMP              0 ****  ****    0 ROOT
