@<TRIPOS>MOLECULE
P1J
   24    24     1     0     0
SMALL
bcc


@<TRIPOS>ATOM
      1 C1          -3.3860    -0.6420    -0.0100 c3         1 P1J      -0.237400
      2 C2          -2.4060     0.5130    -0.0020 c3         1 P1J       0.112000
      3 C4           1.3790     0.1920     0.0090 cc         1 P1J       0.053400
      4 C5           1.6510    -1.1260     0.0220 cd         1 P1J      -0.326200
      5 C6           3.0290    -1.5740     0.0140 c          1 P1J       0.731700
      6 C7           3.7100     0.8000    -0.0170 c          1 P1J       0.828500
      7 N           -1.0390     0.0130    -0.0130 ns         1 P1J      -0.530900
      8 C           -4.8650    -0.2090     0.0130 c          1 P1J       0.936600
      9 O           -5.7000    -1.1340     0.0140 o          1 P1J      -0.831800
     10 C3           0.0090     0.8270     0.0150 c          1 P1J       0.650300
     11 N1           3.9600    -0.5500    -0.0080 ns         1 P1J      -0.607500
     12 N2           2.3790     1.1130    -0.0080 ns         1 P1J      -0.454100
     13 O1          -5.1050     1.0130     0.0280 o          1 P1J      -0.831800
     14 O2          -0.0680     2.0470     0.0450 o          1 P1J      -0.618100
     15 O3           3.3820    -2.7370     0.0250 o          1 P1J      -0.615500
     16 O4           4.5870     1.6360    -0.0320 o          1 P1J      -0.639500
     17 H1          -3.2240    -1.2650    -0.8970 hc         1 P1J       0.024700
     18 H2          -3.2040    -1.2960     0.8500 hc         1 P1J       0.024700
     19 H3          -2.5610     1.1570    -0.8700 h1         1 P1J       0.065200
     20 H4          -2.5520     1.1340     0.8840 h1         1 P1J       0.065200
     21 H5           0.8860    -1.8860     0.0410 ha         1 P1J       0.173000
     22 H7          -0.9080    -0.9840    -0.0500 hn         1 P1J       0.317500
     23 H9           4.9370    -0.8180    -0.0150 hn         1 P1J       0.335500
     24 H6           2.1190     2.0930    -0.0100 hn         1 P1J       0.375500
@<TRIPOS>BOND
     1     1     2 1   
     2     1     8 1   
     3     1    17 1   
     4     1    18 1   
     5     2     7 1   
     6     2    19 1   
     7     2    20 1   
     8     3     4 2   
     9     3    10 1   
    10     3    12 1   
    11     4     5 1   
    12     4    21 1   
    13     5    11 1   
    14     5    15 2   
    15     6    11 1   
    16     6    12 1   
    17     6    16 2   
    18     7    10 1   
    19     7    22 1   
    20     8     9 1   
    21     8    13 1   
    22    10    14 2   
    23    11    23 1   
    24    12    24 1   
@<TRIPOS>SUBSTRUCTURE
     1 P1J         1 TEMP              0 ****  ****    0 ROOT
