@<TRIPOS>MOLECULE
P1M
   39    41     1     0     0
SMALL
abcg2


@<TRIPOS>ATOM
      1 C1          -1.1560     1.0870    -0.9740 c6         1 P1M       0.245500
      2 C2          -2.1090     0.1940    -1.7750 c6         1 P1M      -0.073400
      3 C3          -3.1390    -0.5870    -0.9590 c6         1 P1M       0.188500
      4 C4          -2.6100    -1.7800    -0.1440 c6         1 P1M      -0.099400
      5 C7          -2.9780     0.8870     0.9050 c6         1 P1M       0.188500
      6 C10          1.2300     0.9670    -0.3080 ca         1 P1M       0.362000
      7 C11          2.4100     0.2300    -0.0770 ca         1 P1M      -0.104900
      8 N8          -3.8600     0.3750    -0.1360 n3         1 P1M      -0.727600
      9 C13          3.6790     2.2150     0.4020 ca         1 P1M      -0.172000
     10 C14          2.5340     2.9670     0.1850 ca         1 P1M      -0.050000
     11 C15          1.3380     2.3620    -0.1630 ca         1 P1M      -0.201000
     12 C12          3.6070     0.8360     0.2650 ca         1 P1M      -0.036000
     13 C5          -1.8540    -1.3940     1.1320 c6         1 P1M      -0.074400
     14 C8          -1.8670     1.7130     0.2410 c6         1 P1M      -0.073400
     15 C8A         -5.1400    -0.0980     0.3400 c3         1 P1M       0.162100
     16 N9           0.0550     0.3610    -0.6350 nu         1 P1M      -0.963200
     17 BR1          2.3830    -1.6610    -0.2300 br         1 P1M      -0.122100
     18 H1          -0.8730     1.9130    -1.6380 h1         1 P1M       0.038700
     19 H2          -2.6750     0.8470    -2.4430 hc         1 P1M       0.051200
     20 H3          -1.5400    -0.4790    -2.4240 hc         1 P1M       0.051200
     21 H4          -3.8490    -0.9930    -1.6870 h1         1 P1M       0.051200
     22 H5          -3.4690    -2.4000     0.1300 hc         1 P1M       0.040450
     23 H6          -1.9820    -2.4100    -0.7800 hc         1 P1M       0.040450
     24 H7          -1.8150     0.2040     2.5940 hc         1 P1M       0.040450
     25 H8          -3.3720    -0.5690     2.4230 hc         1 P1M       0.040450
     26 H9          -3.5580     1.6000     1.5020 h1         1 P1M       0.051200
     27 H11          4.6140     2.6840     0.6760 ha         1 P1M       0.117000
     28 H12          2.5640     4.0440     0.2830 ha         1 P1M       0.111000
     29 H13          0.4720     2.9870    -0.3290 ha         1 P1M       0.115000
     30 H14          4.4890     0.2320     0.4320 ha         1 P1M       0.123000
     31 H15         -1.8090    -2.2580     1.8000 hc         1 P1M       0.048200
     32 H16         -0.8220    -1.1430     0.8970 hc         1 P1M       0.048200
     33 H17         -1.1350     2.0060     0.9980 hc         1 P1M       0.051200
     34 H18         -2.3310     2.6400    -0.1060 hc         1 P1M       0.051200
     35 H19         -5.6360     0.6950     0.9030 h1         1 P1M       0.029367
     36 H20         -5.7760    -0.3420    -0.5130 h1         1 P1M       0.029367
     37 H21         -5.1090    -0.9870     0.9850 h1         1 P1M       0.029367
     38 H22          0.1220    -0.5670    -1.0180 hn         1 P1M       0.491000
     39 C6          -2.5040    -0.2170     1.8570 c6         1 P1M      -0.099400
@<TRIPOS>BOND
     1     1     2 1   
     2     1    14 1   
     3     1    16 1   
     4     1    18 1   
     5     2     3 1   
     6     2    19 1   
     7     2    20 1   
     8     3     4 1   
     9     3     8 1   
    10     3    21 1   
    11     4    13 1   
    12     4    22 1   
    13     4    23 1   
    14     5     8 1   
    15     5    14 1   
    16     5    26 1   
    17     5    39 1   
    18     6     7 ar  
    19     6    11 ar  
    20     6    16 1   
    21     7    12 ar  
    22     7    17 1   
    23     8    15 1   
    24     9    10 ar  
    25     9    12 ar  
    26     9    27 1   
    27    10    11 ar  
    28    10    28 1   
    29    11    29 1   
    30    12    30 1   
    31    13    31 1   
    32    13    32 1   
    33    13    39 1   
    34    14    33 1   
    35    14    34 1   
    36    15    35 1   
    37    15    36 1   
    38    15    37 1   
    39    16    38 1   
    40    24    39 1   
    41    25    39 1   
@<TRIPOS>SUBSTRUCTURE
     1 P1M         1 TEMP              0 ****  ****    0 ROOT
