@<TRIPOS>MOLECULE
P1M
   39    41     1     0     0
SMALL
No Charge or Current Charge


@<TRIPOS>ATOM
      1 C1          -1.1990     1.1060    -1.0670 c6         1 P1M       0.245500
      2 C2          -2.1840     0.1960    -1.8590 c6         1 P1M      -0.073400
      3 C3          -3.2510    -0.5550    -1.0120 c6         1 P1M       0.188500
      4 C4          -2.7130    -1.8200    -0.2670 c6         1 P1M      -0.099400
      5 C7          -2.9090     0.8660     0.9410 c6         1 P1M       0.188500
      6 C10          1.2800     1.0730    -0.4000 ca         1 P1M       0.362000
      7 C11          2.3200     0.2730     0.1210 ca         1 P1M      -0.104900
      8 N8          -3.8950     0.3970    -0.0680 n3         1 P1M      -0.727600
      9 C13          3.6460     2.2650     0.5700 ca         1 P1M      -0.172000
     10 C14          2.6210     3.0670     0.0450 ca         1 P1M      -0.050000
     11 C15          1.4440     2.4720    -0.4410 ca         1 P1M      -0.201000
     12 C12          3.4980     0.8680     0.6070 ca         1 P1M      -0.036000
     13 C5          -1.8240    -1.5050     0.9650 c6         1 P1M      -0.074400
     14 C8          -1.7980     1.7050     0.2440 c6         1 P1M      -0.073400
     15 C8A         -5.1720    -0.0920     0.5100 c3         1 P1M       0.162100
     16 N9           0.1160     0.4610    -0.8800 nu         1 P1M      -0.963200
     17 Br1          2.1730    -1.6440     0.1800 br         1 P1M      -0.122100
     18 H1          -1.0170     1.9630    -1.7320 h1         1 P1M       0.038700
     19 H2          -2.7320     0.8450    -2.5550 hc         1 P1M       0.051200
     20 H3          -1.6380    -0.5080    -2.5000 hc         1 P1M       0.051200
     21 H4          -4.0060    -0.9140    -1.7280 h1         1 P1M       0.051200
     22 H5          -3.5670    -2.4260     0.0630 hc         1 P1M       0.040450
     23 H6          -2.1600    -2.4590    -0.9680 hc         1 P1M       0.040450
     24 H7          -1.5870     0.0380     2.4840 hc         1 P1M       0.040450
     25 H8          -3.1750    -0.6880     2.4510 hc         1 P1M       0.040450
     26 H9          -3.4120     1.5520     1.6400 h1         1 P1M       0.051200
     27 H11          4.5570     2.7240     0.9460 ha         1 P1M       0.117000
     28 H12          2.7380     4.1480     0.0120 ha         1 P1M       0.111000
     29 H13          0.6660     3.1080    -0.8480 ha         1 P1M       0.115000
     30 H14          4.2970     0.2490     1.0090 ha         1 P1M       0.123000
     31 H15         -1.7540    -2.3980     1.6010 hc         1 P1M       0.048200
     32 H16         -0.7960    -1.3060     0.6580 hc         1 P1M       0.048200
     33 H17         -1.0080     1.9560     0.9640 hc         1 P1M       0.051200
     34 H18         -2.2510     2.6690    -0.0230 hc         1 P1M       0.051200
     35 H19         -5.6310     0.6840     1.1370 h1         1 P1M       0.029367
     36 H20         -5.8840    -0.3410    -0.2890 h1         1 P1M       0.029367
     37 H21         -5.0280    -0.9870     1.1270 h1         1 P1M       0.029367
     38 H22          0.1320    -0.5570    -0.8310 hn         1 P1M       0.491000
     39 C6          -2.3690    -0.3210     1.8020 c6         1 P1M      -0.099400
@<TRIPOS>BOND
     1     1     2 1   
     2     1    14 1   
     3     1    16 1   
     4     1    18 1   
     5     2     3 1   
     6     2    19 1   
     7     2    20 1   
     8     3     4 1   
     9     3     8 1   
    10     3    21 1   
    11     4    13 1   
    12     4    22 1   
    13     4    23 1   
    14     5     8 1   
    15     5    14 1   
    16     5    26 1   
    17     5    39 1   
    18     6     7 ar  
    19     6    11 ar  
    20     6    16 1   
    21     7    12 ar  
    22     7    17 1   
    23     8    15 1   
    24     9    10 ar  
    25     9    12 ar  
    26     9    27 1   
    27    10    11 ar  
    28    10    28 1   
    29    11    29 1   
    30    12    30 1   
    31    13    31 1   
    32    13    32 1   
    33    13    39 1   
    34    14    33 1   
    35    14    34 1   
    36    15    35 1   
    37    15    36 1   
    38    15    37 1   
    39    16    38 1   
    40    24    39 1   
    41    25    39 1   
@<TRIPOS>SUBSTRUCTURE
     1 P1M         1 TEMP              0 ****  ****    0 ROOT
