@<TRIPOS>MOLECULE
P1O
   94    93     1     0     0
SMALL
bcc


@<TRIPOS>ATOM
      1 O1           0.4950    -3.3720     0.1150 o          1 P1O      -0.818000
      2 O2          -1.7050    -2.0210     0.3090 o          1 P1O      -0.818000
      3 P1          -0.2200    -2.0980     0.4710 p5         1 P1O       1.393800
      4 O3           0.5300    -0.8520    -0.3040 os         1 P1O      -0.557200
      5 C1           0.6550    -0.9060    -1.7040 c3         1 P1O       0.195400
      6 C2           2.0630    -0.5960    -2.1620 c3         1 P1O       0.110800
      7 N1           3.1230    -1.6500    -1.9650 n4         1 P1O      -0.596800
      8 C3           2.7170    -2.9450    -2.5790 c3         1 P1O       0.098767
      9 C4           4.3560    -1.1550    -2.6440 c3         1 P1O       0.098767
     10 C5           3.4420    -1.8730    -0.5250 c3         1 P1O       0.098767
     11 O4           0.2470    -1.5970     1.9540 os         1 P1O      -0.574200
     12 C6          -0.5400    -1.8850     3.0890 c3         1 P1O       0.188400
     13 C7          -1.1830    -0.6380     3.6730 c3         1 P1O       0.111100
     14 C8          -0.2260     0.3810     4.2560 c3         1 P1O       0.151400
     15 O5           0.5900     0.9910     3.2620 os         1 P1O      -0.403900
     16 C9           1.8530     0.6000     3.1090 c          1 P1O       0.670100
     17 O6           2.4100    -0.1810     3.8370 o          1 P1O      -0.549000
     18 C10          2.4760     1.2680     1.9160 c3         1 P1O      -0.148400
     19 C11          3.9900     1.1450     1.8560 c3         1 P1O      -0.071400
     20 C12          4.5600     1.7880     0.5980 c3         1 P1O      -0.074400
     21 C13          6.0720     1.6500     0.4860 c3         1 P1O      -0.081400
     22 C14          6.6330     2.2320    -0.8050 c3         1 P1O      -0.072400
     23 C15          8.1500     2.1280    -0.9020 c3         1 P1O      -0.077400
     24 C16          8.7060     2.6750    -2.2110 c3         1 P1O      -0.075400
     25 C17         10.2240     2.5800    -2.3070 c3         1 P1O      -0.075400
     26 C18         10.7670     3.1210    -3.6230 c3         1 P1O      -0.089100
     27 O7          -1.9630     0.0430     2.6900 os         1 P1O      -0.414900
     28 C19         -3.1860    -0.4000     2.4100 c          1 P1O       0.673100
     29 O8          -3.7220    -1.2960     3.0130 o          1 P1O      -0.553000
     30 C20         -3.7990     0.3620     1.2700 c3         1 P1O      -0.136400
     31 C21         -5.3060     0.1880     1.1580 c3         1 P1O      -0.064400
     32 C22         -5.8720     0.8720    -0.0800 c3         1 P1O      -0.074400
     33 C23         -7.3880     0.7520    -0.1790 c3         1 P1O      -0.075400
     34 C24         -7.9570     1.3490    -1.4590 c3         1 P1O      -0.073400
     35 C25         -9.4760     1.2550    -1.5430 c3         1 P1O      -0.075400
     36 C26        -10.0430     1.8070    -2.8450 c3         1 P1O      -0.075400
     37 C27        -11.5620     1.7170    -2.9280 c3         1 P1O      -0.075400
     38 C28        -12.1140     2.2590    -4.2390 c3         1 P1O      -0.088100
     39 H1           0.3050    -1.8490    -2.1330 h1         1 P1O       0.054200
     40 H2           0.0370    -0.1230    -2.1530 h1         1 P1O       0.054200
     41 H3           2.0310    -0.4020    -3.2340 hx         1 P1O       0.079200
     42 H4           2.4280     0.3080    -1.6730 hx         1 P1O       0.079200
     43 H5           2.4210    -2.7790    -3.6110 hx         1 P1O       0.096589
     44 H6           3.5670    -3.6220    -2.5460 hx         1 P1O       0.096589
     45 H7           1.8970    -3.3730    -2.0110 hx         1 P1O       0.096589
     46 H8           5.1480    -1.8890    -2.5250 hx         1 P1O       0.096589
     47 H9           4.1520    -1.0010    -3.7000 hx         1 P1O       0.096589
     48 H10          4.6570    -0.2140    -2.1910 hx         1 P1O       0.096589
     49 H11          2.6080    -2.3540    -0.0280 hx         1 P1O       0.096589
     50 H12          4.3180    -2.5140    -0.4650 hx         1 P1O       0.096589
     51 H13          3.6600    -0.9170    -0.0570 hx         1 P1O       0.096589
     52 H14          0.1010    -2.3270     3.8570 h1         1 P1O       0.049700
     53 H15         -1.3210    -2.6180     2.8720 h1         1 P1O       0.049700
     54 H16         -1.8110    -0.9660     4.5100 h1         1 P1O       0.062700
     55 H17          0.3720    -0.0930     5.0350 h1         1 P1O       0.061700
     56 H18         -0.7970     1.1880     4.7180 h1         1 P1O       0.061700
     57 H19          2.1740     2.3180     1.8930 hc         1 P1O       0.078200
     58 H20          2.0170     0.8100     1.0320 hc         1 P1O       0.078200
     59 H21          4.2820     0.0910     1.8940 hc         1 P1O       0.052700
     60 H22          4.4380     1.6130     2.7360 hc         1 P1O       0.052700
     61 H23          4.2870     2.8480     0.5720 hc         1 P1O       0.026700
     62 H24          4.0870     1.3470    -0.2900 hc         1 P1O       0.026700
     63 H25          6.3500     0.5920     0.5550 hc         1 P1O       0.042200
     64 H26          6.5430     2.1410     1.3440 hc         1 P1O       0.042200
     65 H27          6.3350     3.2830    -0.8920 hc         1 P1O       0.030200
     66 H28          6.1790     1.7200    -1.6610 hc         1 P1O       0.030200
     67 H29          8.4500     1.0810    -0.7900 hc         1 P1O       0.040200
     68 H30          8.6040     2.6640    -0.0610 hc         1 P1O       0.040200
     69 H31          8.4020     3.7210    -2.3280 hc         1 P1O       0.035200
     70 H32          8.2550     2.1340    -3.0500 hc         1 P1O       0.035200
     71 H33         10.5300     1.5360    -2.1860 hc         1 P1O       0.038200
     72 H34         10.6740     3.1250    -1.4720 hc         1 P1O       0.038200
     73 H35         11.8520     3.0250    -3.6800 hc         1 P1O       0.032700
     74 H36         10.3420     2.5850    -4.4730 hc         1 P1O       0.032700
     75 H37         10.5230     4.1780    -3.7450 hc         1 P1O       0.032700
     76 H38         -3.5340     1.4190     1.3540 hc         1 P1O       0.080200
     77 H39         -3.3040    -0.0040     0.3650 hc         1 P1O       0.080200
     78 H40         -5.5540    -0.8760     1.1220 hc         1 P1O       0.051200
     79 H41         -5.7920     0.5880     2.0520 hc         1 P1O       0.051200
     80 H42         -5.5920     1.9310    -0.0800 hc         1 P1O       0.035700
     81 H43         -5.4120     0.4370    -0.9740 hc         1 P1O       0.035700
     82 H44         -7.6730    -0.3040    -0.1170 hc         1 P1O       0.038700
     83 H45         -7.8480     1.2390     0.6880 hc         1 P1O       0.038700
     84 H46         -7.6550     2.3990    -1.5390 hc         1 P1O       0.035200
     85 H47         -7.5140     0.8410    -2.3230 hc         1 P1O       0.035200
     86 H48         -9.7810     0.2080    -1.4310 hc         1 P1O       0.037700
     87 H49         -9.9200     1.7900    -0.6960 hc         1 P1O       0.037700
     88 H50         -9.7360     2.8520    -2.9620 hc         1 P1O       0.035200
     89 H51         -9.6010     1.2670    -3.6900 hc         1 P1O       0.035200
     90 H52        -11.8700     0.6740    -2.8040 hc         1 P1O       0.036700
     91 H53        -12.0030     2.2630    -2.0890 hc         1 P1O       0.036700
     92 H54        -11.8680     3.3150    -4.3650 hc         1 P1O       0.030033
     93 H55        -11.6980     1.7220    -5.0930 hc         1 P1O       0.030033
     94 H56        -13.2000     2.1670    -4.2870 hc         1 P1O       0.030033
@<TRIPOS>BOND
     1     1     3 1   
     2     2     3 1   
     3     3     4 1   
     4     3    11 1   
     5     4     5 1   
     6     5     6 1   
     7     5    39 1   
     8     5    40 1   
     9     6     7 1   
    10     6    41 1   
    11     6    42 1   
    12     7     8 1   
    13     7     9 1   
    14     7    10 1   
    15     8    43 1   
    16     8    44 1   
    17     8    45 1   
    18     9    46 1   
    19     9    47 1   
    20     9    48 1   
    21    10    49 1   
    22    10    50 1   
    23    10    51 1   
    24    11    12 1   
    25    12    13 1   
    26    12    52 1   
    27    12    53 1   
    28    13    14 1   
    29    13    27 1   
    30    13    54 1   
    31    14    15 1   
    32    14    55 1   
    33    14    56 1   
    34    15    16 1   
    35    16    17 2   
    36    16    18 1   
    37    18    19 1   
    38    18    57 1   
    39    18    58 1   
    40    19    20 1   
    41    19    59 1   
    42    19    60 1   
    43    20    21 1   
    44    20    61 1   
    45    20    62 1   
    46    21    22 1   
    47    21    63 1   
    48    21    64 1   
    49    22    23 1   
    50    22    65 1   
    51    22    66 1   
    52    23    24 1   
    53    23    67 1   
    54    23    68 1   
    55    24    25 1   
    56    24    69 1   
    57    24    70 1   
    58    25    26 1   
    59    25    71 1   
    60    25    72 1   
    61    26    73 1   
    62    26    74 1   
    63    26    75 1   
    64    27    28 1   
    65    28    29 2   
    66    28    30 1   
    67    30    31 1   
    68    30    76 1   
    69    30    77 1   
    70    31    32 1   
    71    31    78 1   
    72    31    79 1   
    73    32    33 1   
    74    32    80 1   
    75    32    81 1   
    76    33    34 1   
    77    33    82 1   
    78    33    83 1   
    79    34    35 1   
    80    34    84 1   
    81    34    85 1   
    82    35    36 1   
    83    35    86 1   
    84    35    87 1   
    85    36    37 1   
    86    36    88 1   
    87    36    89 1   
    88    37    38 1   
    89    37    90 1   
    90    37    91 1   
    91    38    92 1   
    92    38    93 1   
    93    38    94 1   
@<TRIPOS>SUBSTRUCTURE
     1 P1O         1 TEMP              0 ****  ****    0 ROOT
