@<TRIPOS>MOLECULE
P1O
   94    93     1     0     0
SMALL
No Charge or Current Charge


@<TRIPOS>ATOM
      1 O1           2.4840    -3.1610     1.6100 o          1 P1O      -0.818000
      2 O2           0.0730    -2.9760     1.1210 o          1 P1O      -0.818000
      3 P1           1.3150    -2.2420     1.4940 p5         1 P1O       1.393800
      4 O3           1.6090    -1.0550     0.4500 os         1 P1O      -0.580400
      5 C1           0.5400    -0.2100     0.0150 c3         1 P1O       0.218600
      6 C2           1.1430     1.0360    -0.6760 c3         1 P1O       0.082600
      7 N1           1.8760     0.8840    -2.0280 n4         1 P1O      -0.484000
      8 C3           0.9310     0.2880    -3.0810 c3         1 P1O       0.070567
      9 C4           2.3340     2.2710    -2.5000 c3         1 P1O       0.070567
     10 C5           3.1090    -0.0180    -1.8840 c3         1 P1O       0.070567
     11 O4           1.1610    -1.3560     2.8340 os         1 P1O      -0.597400
     12 C6           0.1510    -1.6300     3.8270 c3         1 P1O       0.211600
     13 C7          -1.0870    -0.6780     3.7180 c3         1 P1O       0.134300
     14 C8          -0.8590     0.8310     4.0340 c3         1 P1O       0.174600
     15 O5           0.1880     1.4190     3.2260 os         1 P1O      -0.427100
     16 C9           1.4660     1.4740     3.7250 c          1 P1O       0.621100
     17 O6           1.7680     1.1990     4.8800 o          1 P1O      -0.500000
     18 C10          2.3940     2.2520     2.7880 c3         1 P1O      -0.148400
     19 C11          3.5710     1.3830     2.2860 c3         1 P1O      -0.071400
     20 C12          4.4060     2.0720     1.1850 c3         1 P1O      -0.074400
     21 C13          5.5720     1.1980     0.6780 c3         1 P1O      -0.081400
     22 C14          6.2980     1.8130    -0.5370 c3         1 P1O      -0.072400
     23 C15          7.4390     0.9220    -1.0740 c3         1 P1O      -0.077400
     24 C16          8.1560     1.5330    -2.2980 c3         1 P1O      -0.075400
     25 C17          9.2950     0.6410    -2.8390 c3         1 P1O      -0.075400
     26 C18         10.0100     1.2490    -4.0600 c3         1 P1O      -0.089100
     27 O7          -1.7320    -0.7880     2.4260 os         1 P1O      -0.438100
     28 C19         -2.4950    -1.8960     2.1560 c          1 P1O       0.624100
     29 O8          -2.8160    -2.7360     2.9870 o          1 P1O      -0.504000
     30 C20         -3.1130    -1.8190     0.7590 c3         1 P1O      -0.136400
     31 C21         -4.4270    -1.0030     0.7650 c3         1 P1O      -0.064400
     32 C22         -5.0650    -0.8790    -0.6360 c3         1 P1O      -0.074400
     33 C23         -6.3760    -0.0620    -0.6320 c3         1 P1O      -0.075400
     34 C24         -7.0120     0.0640    -2.0340 c3         1 P1O      -0.073400
     35 C25         -8.3230     0.8820    -2.0310 c3         1 P1O      -0.075400
     36 C26         -8.9590     1.0080    -3.4320 c3         1 P1O      -0.075400
     37 C27        -10.2690     1.8260    -3.4290 c3         1 P1O      -0.075400
     38 C28        -10.9050     1.9520    -4.8270 c3         1 P1O      -0.088100
     39 H1          -0.1250    -0.7390    -0.6780 h1         1 P1O       0.054200
     40 H2          -0.0540     0.1340     0.8680 h1         1 P1O       0.054200
     41 H3           0.3280     1.7440    -0.8410 hx         1 P1O       0.079200
     42 H4           1.8430     1.4960     0.0210 hx         1 P1O       0.079200
     43 H5           0.0530     0.9280    -3.1820 hx         1 P1O       0.096589
     44 H6           1.4520     0.2260    -4.0380 hx         1 P1O       0.096589
     45 H7           0.6260    -0.7120    -2.7670 hx         1 P1O       0.096589
     46 H8           2.8470     2.1740    -3.4580 hx         1 P1O       0.096589
     47 H9           1.4630     2.9190    -2.6130 hx         1 P1O       0.096589
     48 H10          3.0150     2.6970    -1.7600 hx         1 P1O       0.096589
     49 H11          2.7910    -1.0190    -1.5890 hx         1 P1O       0.096589
     50 H12          3.6360    -0.0670    -2.8390 hx         1 P1O       0.096589
     51 H13          3.7660     0.3980    -1.1200 hx         1 P1O       0.096589
     52 H14          0.5830    -1.5140     4.8300 h1         1 P1O       0.049700
     53 H15         -0.1910    -2.6710     3.7580 h1         1 P1O       0.049700
     54 H16         -1.7920    -1.0090     4.4930 h1         1 P1O       0.062700
     55 H17         -0.6620     0.9570     5.1070 h1         1 P1O       0.061700
     56 H18         -1.8030     1.3530     3.8340 h1         1 P1O       0.061700
     57 H19          2.8010     3.1130     3.3300 hc         1 P1O       0.078200
     58 H20          1.8200     2.5990     1.9210 hc         1 P1O       0.078200
     59 H21          3.1810     0.4380     1.8940 hc         1 P1O       0.052700
     60 H22          4.2200     1.1280     3.1330 hc         1 P1O       0.052700
     61 H23          4.8060     3.0190     1.5700 hc         1 P1O       0.026700
     62 H24          3.7520     2.3230     0.3420 hc         1 P1O       0.026700
     63 H25          5.1930     0.2050     0.4070 hc         1 P1O       0.042200
     64 H26          6.2910     1.0480     1.4940 hc         1 P1O       0.042200
     65 H27          6.7060     2.7920    -0.2560 hc         1 P1O       0.030200
     66 H28          5.5720     1.9880    -1.3410 hc         1 P1O       0.030200
     67 H29          7.0310    -0.0580    -1.3490 hc         1 P1O       0.040200
     68 H30          8.1710     0.7530    -0.2750 hc         1 P1O       0.040200
     69 H31          8.5650     2.5130    -2.0240 hc         1 P1O       0.035200
     70 H32          7.4230     1.7030    -3.0970 hc         1 P1O       0.035200
     71 H33          8.8890    -0.3400    -3.1150 hc         1 P1O       0.038200
     72 H34         10.0310     0.4700    -2.0430 hc         1 P1O       0.038200
     73 H35         10.8080     0.5830    -4.4070 hc         1 P1O       0.032700
     74 H36          9.3050     1.4000    -4.8870 hc         1 P1O       0.032700
     75 H37         10.4580     2.2170    -3.8050 hc         1 P1O       0.032700
     76 H38         -2.4100    -1.3080     0.0920 hc         1 P1O       0.080200
     77 H39         -3.3170    -2.8340     0.4010 hc         1 P1O       0.080200
     78 H40         -5.1430    -1.4780     1.4480 hc         1 P1O       0.051200
     79 H41         -4.2270     0.0010     1.1600 hc         1 P1O       0.051200
     80 H42         -4.3480    -0.4050    -1.3180 hc         1 P1O       0.035700
     81 H43         -5.2670    -1.8830    -1.0300 hc         1 P1O       0.035700
     82 H44         -7.0940    -0.5360     0.0480 hc         1 P1O       0.038700
     83 H45         -6.1740     0.9410    -0.2370 hc         1 P1O       0.038700
     84 H46         -6.2940     0.5380    -2.7140 hc         1 P1O       0.035200
     85 H47         -7.2150    -0.9390    -2.4290 hc         1 P1O       0.035200
     86 H48         -9.0410     0.4080    -1.3500 hc         1 P1O       0.037700
     87 H49         -8.1200     1.8850    -1.6350 hc         1 P1O       0.037700
     88 H50         -8.2410     1.4820    -4.1130 hc         1 P1O       0.035200
     89 H51         -9.1620     0.0050    -3.8280 hc         1 P1O       0.035200
     90 H52        -10.9910     1.3540    -2.7510 hc         1 P1O       0.036700
     91 H53        -10.0710     2.8310    -3.0360 hc         1 P1O       0.036700
     92 H54        -10.2200     2.4530    -5.5210 hc         1 P1O       0.030033
     93 H55        -11.1490     0.9630    -5.2340 hc         1 P1O       0.030033
     94 H56        -11.8300     2.5390    -4.7750 hc         1 P1O       0.030033
@<TRIPOS>BOND
     1     1     3 1   
     2     2     3 1   
     3     3     4 1   
     4     3    11 1   
     5     4     5 1   
     6     5     6 1   
     7     5    39 1   
     8     5    40 1   
     9     6     7 1   
    10     6    41 1   
    11     6    42 1   
    12     7     8 1   
    13     7     9 1   
    14     7    10 1   
    15     8    43 1   
    16     8    44 1   
    17     8    45 1   
    18     9    46 1   
    19     9    47 1   
    20     9    48 1   
    21    10    49 1   
    22    10    50 1   
    23    10    51 1   
    24    11    12 1   
    25    12    13 1   
    26    12    52 1   
    27    12    53 1   
    28    13    14 1   
    29    13    27 1   
    30    13    54 1   
    31    14    15 1   
    32    14    55 1   
    33    14    56 1   
    34    15    16 1   
    35    16    17 2   
    36    16    18 1   
    37    18    19 1   
    38    18    57 1   
    39    18    58 1   
    40    19    20 1   
    41    19    59 1   
    42    19    60 1   
    43    20    21 1   
    44    20    61 1   
    45    20    62 1   
    46    21    22 1   
    47    21    63 1   
    48    21    64 1   
    49    22    23 1   
    50    22    65 1   
    51    22    66 1   
    52    23    24 1   
    53    23    67 1   
    54    23    68 1   
    55    24    25 1   
    56    24    69 1   
    57    24    70 1   
    58    25    26 1   
    59    25    71 1   
    60    25    72 1   
    61    26    73 1   
    62    26    74 1   
    63    26    75 1   
    64    27    28 1   
    65    28    29 2   
    66    28    30 1   
    67    30    31 1   
    68    30    76 1   
    69    30    77 1   
    70    31    32 1   
    71    31    78 1   
    72    31    79 1   
    73    32    33 1   
    74    32    80 1   
    75    32    81 1   
    76    33    34 1   
    77    33    82 1   
    78    33    83 1   
    79    34    35 1   
    80    34    84 1   
    81    34    85 1   
    82    35    36 1   
    83    35    86 1   
    84    35    87 1   
    85    36    37 1   
    86    36    88 1   
    87    36    89 1   
    88    37    38 1   
    89    37    90 1   
    90    37    91 1   
    91    38    92 1   
    92    38    93 1   
    93    38    94 1   
@<TRIPOS>SUBSTRUCTURE
     1 P1O         1 TEMP              0 ****  ****    0 ROOT
