@<TRIPOS>MOLECULE
P1R
   10    10     1     0     0
SMALL
abcg2


@<TRIPOS>ATOM
      1 C5           0.0190    -1.3420     0.0040 ca         1 P1R      -0.217000
      2 C6           1.1810    -0.5890     0.0250 ca         1 P1R       0.105900
      3 N1           1.1590     0.7390     0.0550 nb         1 P1R      -0.173000
      4 C4          -1.1730    -0.6380     0.0150 ca         1 P1R       0.105900
      5 N3          -1.2070     0.6900     0.0450 nb         1 P1R      -0.173000
      6 C2          -0.0360     1.3090     0.0640 ca         1 P1R       0.115900
      7 H5           0.0410    -2.4210    -0.0200 ha         1 P1R       0.135000
      8 H6           2.1550    -1.0650     0.0170 h4         1 P1R       0.025100
      9 H4          -2.1260    -1.1540     0.0000 h4         1 P1R       0.025100
     10 H2          -0.0590     2.3930     0.0880 h5         1 P1R       0.050100
@<TRIPOS>BOND
     1     1     2 ar  
     2     1     4 ar  
     3     1     7 1   
     4     2     3 ar  
     5     2     8 1   
     6     3     6 ar  
     7     4     5 ar  
     8     4     9 1   
     9     5     6 ar  
    10     6    10 1   
@<TRIPOS>SUBSTRUCTURE
     1 P1R         1 TEMP              0 ****  ****    0 ROOT
