@<TRIPOS>MOLECULE
P1R
   10    10     1     0     0
SMALL
No Charge or Current Charge


@<TRIPOS>ATOM
      1 C5           0.0190    -1.3510     0.0040 ca         1 P1R      -0.217000
      2 C6           1.2070    -0.5980     0.0250 ca         1 P1R       0.105900
      3 N1           1.1830     0.7500     0.0550 nb         1 P1R      -0.173000
      4 C4          -1.1980    -0.6480     0.0150 ca         1 P1R       0.105900
      5 N3          -1.2310     0.7000     0.0450 nb         1 P1R      -0.173000
      6 C2          -0.0370     1.3320     0.0640 ca         1 P1R       0.115900
      7 H5           0.0420    -2.4380    -0.0210 ha         1 P1R       0.135000
      8 H6           2.1850    -1.0770     0.0180 h4         1 P1R       0.025100
      9 H4          -2.1560    -1.1670    -0.0000 h4         1 P1R       0.025100
     10 H2          -0.0590     2.4200     0.0890 h5         1 P1R       0.050100
@<TRIPOS>BOND
     1     1     2 ar  
     2     1     4 ar  
     3     1     7 1   
     4     2     3 ar  
     5     2     8 1   
     6     3     6 ar  
     7     4     5 ar  
     8     4     9 1   
     9     5     6 ar  
    10     6    10 1   
@<TRIPOS>SUBSTRUCTURE
     1 P1R         1 TEMP              0 ****  ****    0 ROOT
