@<TRIPOS>MOLECULE
P1S
   37    41     1     0     0
SMALL
No Charge or Current Charge


@<TRIPOS>ATOM
      1 C1           0.2380     1.5520     0.8940 c6         1 P1S       0.131600
      2 O1           1.6670     1.7040     0.8490 os         1 P1S      -0.329100
      3 C2           2.4110     0.6230     0.4320 ca         1 P1S       0.148100
      4 C3           1.8390    -0.4050    -0.3590 ca         1 P1S      -0.158300
      5 C4           0.3910    -0.3520    -0.8710 c5         1 P1S       0.219600
      6 C5          -0.2970     1.0150    -0.4560 c5         1 P1S       0.186300
      7 C6           3.7610     0.5640     0.8110 ca         1 P1S      -0.134000
      8 C7           4.5650    -0.5260     0.4310 ca         1 P1S      -0.045300
      9 C8           3.9980    -1.5560    -0.3420 ca         1 P1S      -0.119000
     10 C9           2.6510    -1.4930    -0.7360 ca         1 P1S      -0.054000
     11 O2          -0.4100    -1.4440    -0.3120 os         1 P1S      -0.319100
     12 C10         -1.6620    -0.9050    -0.2070 ca         1 P1S       0.141100
     13 C11         -1.6880     0.4810    -0.2960 ca         1 P1S      -0.219300
     14 C12         -2.8270    -1.6570     0.0140 ca         1 P1S      -0.120000
     15 C13         -4.0260    -0.9380     0.1210 ca         1 P1S       0.094100
     16 C14         -4.0620     0.4330     0.0330 ca         1 P1S       0.010100
     17 C15         -2.8990     1.1960    -0.1680 ca         1 P1S      -0.029000
     18 O3          -5.2530    -1.4720     0.3460 os         1 P1S      -0.340100
     19 C16         -6.1360    -0.2950     0.2850 c5         1 P1S       0.372600
     20 O4          -5.3170     0.9250     0.1940 os         1 P1S      -0.342100
     21 O5          -0.2120     2.0030    -1.4910 oh         1 P1S      -0.625000
     22 C17          6.0280    -0.5930     0.8540 c3         1 P1S       0.206900
     23 O6           6.8610     0.0470    -0.1190 oh         1 P1S      -0.653000
     24 H11         -0.2230     2.5170     1.1440 h1         1 P1S       0.068700
     25 H12A        -0.0090     0.8430     1.6980 h1         1 P1S       0.068700
     26 H4           0.3720    -0.4530    -1.9650 h1         1 P1S       0.091700
     27 H6           4.1830     1.3670     1.4100 ha         1 P1S       0.127000
     28 H8           4.6070    -2.4050    -0.6470 ha         1 P1S       0.126000
     29 H9           2.2370    -2.2930    -1.3470 ha         1 P1S       0.120000
     30 H12         -2.8000    -2.7400     0.0990 ha         1 P1S       0.153000
     31 H15         -2.9410     2.2820    -0.2110 ha         1 P1S       0.135000
     32 H161        -6.7660    -0.3690    -0.6090 h2         1 P1S       0.066700
     33 H162        -6.7630    -0.2550     1.1840 h2         1 P1S       0.066700
     34 HO5         -0.7980     2.7440    -1.2310 ho         1 P1S       0.455000
     35 H171         6.3220    -1.6440     0.9750 h1         1 P1S       0.028200
     36 H172         6.1430    -0.1070     1.8330 h1         1 P1S       0.028200
     37 HO6          7.7850    -0.0270     0.2070 ho         1 P1S       0.443000
@<TRIPOS>BOND
     1     1     2 1   
     2     1     6 1   
     3     1    24 1   
     4     1    25 1   
     5     2     3 1   
     6     3     4 ar  
     7     3     7 ar  
     8     4     5 1   
     9     4    10 ar  
    10     5     6 1   
    11     5    11 1   
    12     5    26 1   
    13     6    13 1   
    14     6    21 1   
    15     7     8 ar  
    16     7    27 1   
    17     8     9 ar  
    18     8    22 1   
    19     9    10 ar  
    20     9    28 1   
    21    10    29 1   
    22    11    12 1   
    23    12    13 ar  
    24    12    14 ar  
    25    13    17 ar  
    26    14    15 ar  
    27    14    30 1   
    28    15    16 ar  
    29    15    18 1   
    30    16    17 ar  
    31    16    20 1   
    32    17    31 1   
    33    18    19 1   
    34    19    20 1   
    35    19    32 1   
    36    19    33 1   
    37    21    34 1   
    38    22    23 1   
    39    22    35 1   
    40    22    36 1   
    41    23    37 1   
@<TRIPOS>SUBSTRUCTURE
     1 P1S         1 TEMP              0 ****  ****    0 ROOT
