@<TRIPOS>MOLECULE
P1S
   37    41     1     0     0
SMALL
abcg2


@<TRIPOS>ATOM
      1 C1           0.2320     1.4960     0.9480 c6         1 P1S       0.131600
      2 O1           1.6280     1.7160     0.8940 os         1 P1S      -0.329100
      3 C2           2.3570     0.6680     0.4540 ca         1 P1S       0.148100
      4 C3           1.8150    -0.3350    -0.3450 ca         1 P1S      -0.158300
      5 C4           0.4030    -0.2530    -0.8240 c5         1 P1S       0.219600
      6 C5          -0.3180     1.0390    -0.3990 c5         1 P1S       0.186300
      7 C6           3.7050     0.6330     0.8120 ca         1 P1S      -0.134000
      8 C7           4.5170    -0.4100     0.4040 ca         1 P1S      -0.045300
      9 C8           3.9740    -1.4290    -0.3830 ca         1 P1S      -0.119000
     10 C9           2.6460    -1.3780    -0.7540 ca         1 P1S      -0.054000
     11 O2          -0.3880    -1.3320    -0.2950 os         1 P1S      -0.319100
     12 C10         -1.6510    -0.8580    -0.1550 ca         1 P1S       0.141100
     13 C11         -1.7210     0.5210    -0.2290 ca         1 P1S      -0.219300
     14 C12         -2.7670    -1.6700     0.0340 ca         1 P1S      -0.120000
     15 C13         -3.9530    -0.9790     0.1560 ca         1 P1S       0.094100
     16 C14         -4.0370     0.4060     0.0880 ca         1 P1S       0.010100
     17 C15         -2.9310     1.2010    -0.1030 ca         1 P1S      -0.029000
     18 O3          -5.1870    -1.4920     0.3610 os         1 P1S      -0.340100
     19 C16         -6.0930    -0.4100     0.1690 c5         1 P1S       0.372600
     20 O4          -5.3330     0.7820     0.2630 os         1 P1S      -0.342100
     21 O5          -0.1230     1.9930    -1.4020 oh         1 P1S      -0.625000
     22 C17          5.9590    -0.4600     0.8270 c3         1 P1S       0.206900
     23 O6           6.7640    -0.7110    -0.3030 oh         1 P1S      -0.653000
     24 H11         -0.2240     2.4380     1.2570 h1         1 P1S       0.068700
     25 H12A         0.0040     0.7450     1.7140 h1         1 P1S       0.068700
     26 H4           0.3730    -0.3200    -1.9190 h1         1 P1S       0.091700
     27 H6           4.1100     1.4380     1.4150 ha         1 P1S       0.127000
     28 H8           4.5910    -2.2550    -0.7140 ha         1 P1S       0.126000
     29 H9           2.2370    -2.1600    -1.3840 ha         1 P1S       0.120000
     30 H12         -2.7080    -2.7480     0.0810 ha         1 P1S       0.153000
     31 H15         -3.0020     2.2800    -0.1510 ha         1 P1S       0.135000
     32 H161        -6.5520    -0.4890    -0.8230 h2         1 P1S       0.066700
     33 H162        -6.8550    -0.4270     0.9470 h2         1 P1S       0.066700
     34 HO5         -0.4490     2.8480    -1.1000 ho         1 P1S       0.455000
     35 H171         6.0760    -1.2500     1.5790 h1         1 P1S       0.028200
     36 H172         6.2270     0.4830     1.3180 h1         1 P1S       0.028200
     37 HO6          7.6420    -0.9520     0.0050 ho         1 P1S       0.443000
@<TRIPOS>BOND
     1     1     2 1   
     2     1     6 1   
     3     1    24 1   
     4     1    25 1   
     5     2     3 1   
     6     3     4 ar  
     7     3     7 ar  
     8     4     5 1   
     9     4    10 ar  
    10     5     6 1   
    11     5    11 1   
    12     5    26 1   
    13     6    13 1   
    14     6    21 1   
    15     7     8 ar  
    16     7    27 1   
    17     8     9 ar  
    18     8    22 1   
    19     9    10 ar  
    20     9    28 1   
    21    10    29 1   
    22    11    12 1   
    23    12    13 ar  
    24    12    14 ar  
    25    13    17 ar  
    26    14    15 ar  
    27    14    30 1   
    28    15    16 ar  
    29    15    18 1   
    30    16    17 ar  
    31    16    20 1   
    32    17    31 1   
    33    18    19 1   
    34    19    20 1   
    35    19    32 1   
    36    19    33 1   
    37    21    34 1   
    38    22    23 1   
    39    22    35 1   
    40    22    36 1   
    41    23    37 1   
@<TRIPOS>SUBSTRUCTURE
     1 P1S         1 TEMP              0 ****  ****    0 ROOT
