@<TRIPOS>MOLECULE
P1U
   21    22     1     0     0
SMALL
No Charge or Current Charge


@<TRIPOS>ATOM
      1 C10          3.9880     9.5180   -17.2350 ca         1 P1U      -0.102500
      2 C13          3.7670    10.2290   -14.5290 ca         1 P1U      -0.107500
      3 C04          1.6890     6.1200   -18.3850 cc         1 P1U       0.138500
      4 C05          1.1270     5.8120   -17.1650 cd         1 P1U      -0.225000
      5 C06          1.5980     6.7600   -16.2310 cd         1 P1U      -0.164000
      6 C07          2.4250     7.6000   -16.9290 cc         1 P1U       0.096500
      7 C09          3.1580     8.7520   -16.3860 ca         1 P1U      -0.063500
      8 C11          4.6980    10.6250   -16.7370 ca         1 P1U      -0.107500
      9 C12          3.0560     9.1210   -15.0250 ca         1 P1U      -0.102500
     10 C14          4.5870    10.9790   -15.3850 ca         1 P1U       0.097000
     11 O01          2.0580     5.7930   -20.6870 o          1 P1U      -0.693000
     12 O03          0.7440     4.4140   -19.7050 o          1 P1U      -0.693000
     13 O08          2.5010     7.2330   -18.2520 os         1 P1U      -0.208000
     14 Cl15         5.4760    12.3630   -14.7620 cl         1 P1U      -0.239000
     15 H1           4.0860     9.2580   -18.2870 ha         1 P1U       0.129500
     16 H2           3.6820    10.5040   -13.4810 ha         1 P1U       0.116500
     17 H3           0.4480     4.9890   -16.9670 ha         1 P1U       0.140000
     18 H4           1.3490     6.8030   -15.1770 ha         1 P1U       0.112000
     19 H5           5.3330    11.2070   -17.4000 ha         1 P1U       0.116500
     20 H6           2.4280     8.5580   -14.3410 ha         1 P1U       0.129500
     21 C02          1.4820     5.3910   -19.6830 c          1 P1U       0.629500
@<TRIPOS>BOND
     1     1     7 ar  
     2     1     8 ar  
     3     1    15 1   
     4     2     9 ar  
     5     2    10 ar  
     6     2    16 1   
     7     3     4 2   
     8     3    13 1   
     9     3    21 1   
    10     4     5 1   
    11     4    17 1   
    12     5     6 2   
    13     5    18 1   
    14     6     7 1   
    15     6    13 1   
    16     7     9 ar  
    17     8    10 ar  
    18     8    19 1   
    19     9    20 1   
    20    10    14 1   
    21    11    21 1   
    22    12    21 1   
@<TRIPOS>SUBSTRUCTURE
     1 P1U         1 TEMP              0 ****  ****    0 ROOT
