@<TRIPOS>MOLECULE
P1U
   21    22     1     0     0
SMALL
abcg2


@<TRIPOS>ATOM
      1 C10          3.9630     9.4330   -17.2330 ca         1 P1U      -0.102500
      2 C13          3.7470    10.2590   -14.5910 ca         1 P1U      -0.107500
      3 C04          1.6770     6.1400   -18.3150 cc         1 P1U       0.138500
      4 C05          1.1320     5.7500   -17.1300 cd         1 P1U      -0.225000
      5 C06          1.5780     6.6740   -16.1510 cd         1 P1U      -0.164000
      6 C07          2.3720     7.5700   -16.8070 cc         1 P1U       0.096500
      7 C09          3.1260     8.7290   -16.3630 ca         1 P1U      -0.063500
      8 C11          4.6850    10.5310   -16.7940 ca         1 P1U      -0.107500
      9 C12          3.0300     9.1650   -15.0380 ca         1 P1U      -0.102500
     10 C14          4.5750    10.9370   -15.4740 ca         1 P1U       0.097000
     11 O01          2.1690     6.1840   -20.6060 o          1 P1U      -0.693000
     12 O03          0.8780     4.5420   -19.7890 o          1 P1U      -0.693000
     13 O08          2.4290     7.2460   -18.1120 os         1 P1U      -0.208000
     14 CL15         5.4790    12.3060   -14.9180 cl         1 P1U      -0.239000
     15 H1           4.0650     9.1290   -18.2660 ha         1 P1U       0.129500
     16 H2           3.6600    10.5810   -13.5620 ha         1 P1U       0.116500
     17 H3           0.4860     4.9020   -16.9760 ha         1 P1U       0.140000
     18 H4           1.3450     6.6690   -15.0980 ha         1 P1U       0.112000
     19 H5           5.3310    11.0620   -17.4810 ha         1 P1U       0.116500
     20 H6           2.3850     8.6480   -14.3390 ha         1 P1U       0.129500
     21 C02          1.5690     5.5730   -19.7050 c          1 P1U       0.629500
@<TRIPOS>BOND
     1     1     7 ar  
     2     1     8 ar  
     3     1    15 1   
     4     2     9 ar  
     5     2    10 ar  
     6     2    16 1   
     7     3     4 2   
     8     3    13 1   
     9     3    21 1   
    10     4     5 1   
    11     4    17 1   
    12     5     6 2   
    13     5    18 1   
    14     6     7 1   
    15     6    13 1   
    16     7     9 ar  
    17     8    10 ar  
    18     8    19 1   
    19     9    20 1   
    20    10    14 1   
    21    11    21 1   
    22    12    21 1   
@<TRIPOS>SUBSTRUCTURE
     1 P1U         1 TEMP              0 ****  ****    0 ROOT
