@<TRIPOS>MOLECULE
P1V
   30    30     1     0     0
SMALL
abcg2


@<TRIPOS>ATOM
      1 C4         -15.3340    10.6890    -7.6630 c3         1 P1V      -0.100700
      2 C5         -15.1440    10.1520    -6.2370 c3         1 P1V      -0.072400
      3 C6         -16.3630    10.3990    -5.3530 c3         1 P1V      -0.073400
      4 C7         -16.1830     9.8700    -3.9330 c3         1 P1V      -0.048400
      5 N1         -12.4600    10.5690    -9.7370 na         1 P1V      -0.220700
      6 N2         -13.3310    11.2950    -8.9870 nc         1 P1V      -0.541800
      7 N3         -13.8960     9.1180    -9.0020 nd         1 P1V      -0.702000
      8 N          -17.6600    11.4880    -2.7980 n8         1 P1V      -1.002200
      9 CA         -17.4110    10.0580    -3.0310 c3         1 P1V       0.017500
     10 C          -17.2160     9.2240    -1.7370 c          1 P1V       0.684000
     11 O          -17.4370     7.9880    -1.8300 o          1 P1V      -0.737000
     12 C1         -12.8040     9.2710    -9.7410 cc         1 P1V       0.423800
     13 C2         -14.1840    10.3800    -8.5590 cd         1 P1V       0.555300
     14 H1         -15.4760    11.7710    -7.6360 hc         1 P1V       0.056200
     15 H17        -16.2400    10.2510    -8.0910 hc         1 P1V       0.056200
     16 H3         -14.9340     9.0800    -6.2830 hc         1 P1V       0.042700
     17 H4         -14.2620    10.6250    -5.7930 hc         1 P1V       0.042700
     18 H5         -16.5820    11.4690    -5.3190 hc         1 P1V       0.035700
     19 H6         -17.2370     9.9160    -5.8060 hc         1 P1V       0.035700
     20 H7         -15.9470     8.8030    -3.9740 hc         1 P1V       0.039200
     21 H8         -15.3260    10.3650    -3.4610 hc         1 P1V       0.039200
     22 H9         -11.6870    11.0150   -10.2060 hn         1 P1V       0.365000
     23 H10        -12.5790     7.2610   -10.3550 hc         1 P1V       0.056033
     24 H11        -11.9740     8.4470   -11.5270 hc         1 P1V       0.056033
     25 H12        -11.0470     8.1040   -10.0660 hc         1 P1V       0.056033
     26 H          -18.5740    11.5910    -2.3660 hn         1 P1V       0.381000
     27 H2         -17.0040    11.7870    -2.0800 hn         1 P1V       0.381000
     28 HA         -18.2810     9.6480    -3.5510 h1         1 P1V       0.036700
     29 OXT        -16.8250     9.8320    -0.7070 o          1 P1V      -0.737000
     30 C3         -12.0580     8.2100   -10.4650 c3         1 P1V      -0.124400
@<TRIPOS>BOND
     1     1     2 1   
     2     1    13 1   
     3     1    14 1   
     4     1    15 1   
     5     2     3 1   
     6     2    16 1   
     7     2    17 1   
     8     3     4 1   
     9     3    18 1   
    10     3    19 1   
    11     4     9 1   
    12     4    20 1   
    13     4    21 1   
    14     5     6 1   
    15     5    12 1   
    16     5    22 1   
    17     6    13 2   
    18     7    12 2   
    19     7    13 1   
    20     8     9 1   
    21     8    26 1   
    22     8    27 1   
    23     9    10 1   
    24     9    28 1   
    25    10    11 1   
    26    10    29 1   
    27    12    30 1   
    28    23    30 1   
    29    24    30 1   
    30    25    30 1   
@<TRIPOS>SUBSTRUCTURE
     1 P1V         1 TEMP              0 ****  ****    0 ROOT
