@<TRIPOS>MOLECULE
P1V
   30    30     1     0     0
SMALL
No Charge or Current Charge


@<TRIPOS>ATOM
      1 C4         -15.3450    10.5270    -7.6950 c3         1 P1V      -0.100700
      2 C5         -15.1410    10.0970    -6.2240 c3         1 P1V      -0.072400
      3 C6         -16.3870    10.3390    -5.3420 c3         1 P1V      -0.073400
      4 C7         -16.1800     9.9070    -3.8700 c3         1 P1V      -0.048400
      5 N1         -12.3120    10.5570    -9.5400 na         1 P1V      -0.220700
      6 N2         -13.1840    11.2030    -8.7120 nc         1 P1V      -0.541800
      7 N3         -13.9080     9.1030    -9.2280 nd         1 P1V      -0.702000
      8 N          -17.8100    11.5330    -2.8310 n8         1 P1V      -1.002200
      9 CA         -17.4310    10.0780    -2.9640 c3         1 P1V       0.017500
     10 C          -17.2340     9.2860    -1.6050 c          1 P1V       0.684000
     11 O          -17.8970     8.2750    -1.4210 o          1 P1V      -0.737000
     12 C1         -12.7580     9.2980    -9.8410 cc         1 P1V       0.423800
     13 C2         -14.1290    10.2870    -8.5520 cd         1 P1V       0.555300
     14 H1         -15.6130    11.5900    -7.7270 hc         1 P1V       0.056200
     15 H17        -16.1990     9.9820    -8.1140 hc         1 P1V       0.056200
     16 H3         -14.8790     9.0320    -6.1950 hc         1 P1V       0.042700
     17 H4         -14.2900    10.6480    -5.8050 hc         1 P1V       0.042700
     18 H5         -16.6470    11.4050    -5.3790 hc         1 P1V       0.035700
     19 H6         -17.2380     9.7870    -5.7620 hc         1 P1V       0.035700
     20 H7         -15.8900     8.8490    -3.8600 hc         1 P1V       0.039200
     21 H8         -15.3380    10.4630    -3.4390 hc         1 P1V       0.039200
     22 H9         -11.4500    10.9790    -9.8750 hn         1 P1V       0.365000
     23 H10        -12.6130     7.3780   -10.8040 hc         1 P1V       0.056033
     24 H11        -11.9200     8.7220   -11.7320 hc         1 P1V       0.056033
     25 H12        -11.0570     8.0780   -10.3200 hc         1 P1V       0.056033
     26 H          -18.6680    11.6040    -2.2710 hn         1 P1V       0.381000
     27 H2         -17.1080    11.9930    -2.2380 hn         1 P1V       0.381000
     28 HA         -18.2670     9.5860    -3.4800 h1         1 P1V       0.036700
     29 OXT        -16.5130     9.7750    -0.7430 o          1 P1V      -0.737000
     30 C3         -12.0490     8.3140   -10.7230 c3         1 P1V      -0.124400
@<TRIPOS>BOND
     1     1     2 1   
     2     1    13 1   
     3     1    14 1   
     4     1    15 1   
     5     2     3 1   
     6     2    16 1   
     7     2    17 1   
     8     3     4 1   
     9     3    18 1   
    10     3    19 1   
    11     4     9 1   
    12     4    20 1   
    13     4    21 1   
    14     5     6 1   
    15     5    12 1   
    16     5    22 1   
    17     6    13 2   
    18     7    12 2   
    19     7    13 1   
    20     8     9 1   
    21     8    26 1   
    22     8    27 1   
    23     9    10 1   
    24     9    28 1   
    25    10    11 1   
    26    10    29 1   
    27    12    30 1   
    28    23    30 1   
    29    24    30 1   
    30    25    30 1   
@<TRIPOS>SUBSTRUCTURE
     1 P1V         1 TEMP              0 ****  ****    0 ROOT
