@<TRIPOS>MOLECULE
P1W
   16    15     1     0     0
SMALL
No Charge or Current Charge


@<TRIPOS>ATOM
      1 C1          -8.8830    -1.7640    -9.5020 c3         1 P1W       0.200800
      2 C2          -8.3890    -0.3740    -9.1660 c2         1 P1W      -0.226200
      3 C3          -8.1110     0.6120   -10.0390 c2         1 P1W      -0.098400
      4 C4          -7.6190     1.9790    -9.6010 c3         1 P1W      -0.057900
      5 C5          -8.2490     0.4980   -11.5500 c3         1 P1W      -0.057900
      6 O1          -9.0590    -2.5160    -8.3010 oh         1 P1W      -0.657000
      7 H12         -9.8330    -1.6930   -10.0480 h1         1 P1W       0.020700
      8 H11         -8.1550    -2.2620   -10.1570 h1         1 P1W       0.020700
      9 H2          -8.2600    -0.2000    -8.0970 ha         1 P1W       0.176000
     10 H43         -7.5240     2.0470    -8.5110 hc         1 P1W       0.040033
     11 H41         -6.6340     2.2000   -10.0310 hc         1 P1W       0.040033
     12 H42         -8.3090     2.7690    -9.9210 hc         1 P1W       0.040033
     13 H51         -8.6040    -0.4890   -11.8680 hc         1 P1W       0.040033
     14 H52         -8.9590     1.2390   -11.9360 hc         1 P1W       0.040033
     15 H53         -7.2860     0.6710   -12.0450 hc         1 P1W       0.040033
     16 H1          -9.3790    -3.4050    -8.5710 ho         1 P1W       0.438000
@<TRIPOS>BOND
     1     1     2 1   
     2     1     6 1   
     3     1     7 1   
     4     1     8 1   
     5     2     3 2   
     6     2     9 1   
     7     3     4 1   
     8     3     5 1   
     9     4    10 1   
    10     4    11 1   
    11     4    12 1   
    12     5    13 1   
    13     5    14 1   
    14     5    15 1   
    15     6    16 1   
@<TRIPOS>SUBSTRUCTURE
     1 P1W         1 TEMP              0 ****  ****    0 ROOT
