@<TRIPOS>MOLECULE
P1W
   16    15     1     0     0
SMALL
bcc


@<TRIPOS>ATOM
      1 C1          -9.1280    -1.6650    -9.4580 c3         1 P1W       0.177600
      2 C2          -8.5950    -0.2980    -9.1770 c2         1 P1W      -0.176200
      3 C3          -8.1340     0.5990   -10.0530 c2         1 P1W      -0.098400
      4 C4          -7.6500     1.9420    -9.5890 c3         1 P1W      -0.057900
      5 C5          -8.0500     0.3970   -11.5370 c3         1 P1W      -0.057900
      6 O1          -8.3710    -2.6010    -8.7090 oh         1 P1W      -0.594800
      7 H12        -10.1850    -1.6990    -9.1630 h1         1 P1W       0.020700
      8 H11         -9.0990    -1.8940   -10.5290 h1         1 P1W       0.020700
      9 H2          -8.6080    -0.0190    -8.1260 ha         1 P1W       0.126000
     10 H43         -7.7460     2.0650    -8.5110 hc         1 P1W       0.040033
     11 H41         -6.6000     2.0870    -9.8540 hc         1 P1W       0.040033
     12 H42         -8.2060     2.7480   -10.0740 hc         1 P1W       0.040033
     13 H51         -8.3430    -0.5980   -11.8650 hc         1 P1W       0.040033
     14 H52         -8.6880     1.1170   -12.0530 hc         1 P1W       0.040033
     15 H53         -7.0310     0.5820   -11.8870 hc         1 P1W       0.040033
     16 H1          -8.8200    -3.4500    -8.7600 ho         1 P1W       0.399000
@<TRIPOS>BOND
     1     1     2 1   
     2     1     6 1   
     3     1     7 1   
     4     1     8 1   
     5     2     3 2   
     6     2     9 1   
     7     3     4 1   
     8     3     5 1   
     9     4    10 1   
    10     4    11 1   
    11     4    12 1   
    12     5    13 1   
    13     5    14 1   
    14     5    15 1   
    15     6    16 1   
@<TRIPOS>SUBSTRUCTURE
     1 P1W         1 TEMP              0 ****  ****    0 ROOT
