@<TRIPOS>MOLECULE
P1X
   46    48     1     0     0
SMALL
No Charge or Current Charge


@<TRIPOS>ATOM
      1 C10         24.2030    27.3490    32.1790 ca         1 P1X       0.327900
      2 C13         24.7140    25.1940    35.2530 cc         1 P1X      -0.199000
      3 C15         26.2860    24.5890    37.1660 c3         1 P1X       0.086600
      4 C17         27.1750    22.4330    35.9580 c3         1 P1X      -0.025100
      5 C20         26.9800    23.9520    32.4290 ca         1 P1X      -0.096000
      6 C21         25.7400    23.4650    31.9860 ca         1 P1X       0.124000
      7 C24         25.4560    22.2710    34.0870 ca         1 P1X      -0.100500
      8 C28         22.0370    25.6890    31.7490 ca         1 P1X       0.108100
      9 C02         18.3870    25.4000    28.1300 c          1 P1X       0.715000
     10 C04         19.6150    26.3480    28.0580 c3         1 P1X      -0.058000
     11 C06         21.5610    27.0390    29.5490 c          1 P1X       0.504600
     12 C08         22.3700    26.7450    30.8370 ca         1 P1X       0.295500
     13 C11         23.9410    26.3330    33.1160 ca         1 P1X      -0.131500
     14 C12         24.8250    26.1440    34.2780 cd         1 P1X       0.273500
     15 C16         27.4910    23.6610    36.8550 c3         1 P1X      -0.090400
     16 C18         26.6890    22.7740    34.5510 ca         1 P1X      -0.096300
     17 C19         27.4560    23.6030    33.7060 ca         1 P1X      -0.100500
     18 C23         24.9820    22.6190    32.8100 ca         1 P1X      -0.096000
     19 C27         22.8320    25.4920    32.8920 ca         1 P1X      -0.184000
     20 N05         20.4860    26.2190    29.2490 ns         1 P1X      -0.446900
     21 N09         23.4480    27.5570    31.0770 nb         1 P1X      -0.605000
     22 N14         25.8300    25.3980    36.0220 na         1 P1X       0.124800
     23 N25         26.5560    26.4650    35.5810 nc         1 P1X      -0.213800
     24 N26         25.9440    26.9160    34.5180 nd         1 P1X      -0.346000
     25 O01         18.5810    24.2200    28.3890 o          1 P1X      -0.729000
     26 O03         17.2740    25.8820    27.9780 o          1 P1X      -0.729000
     27 O07         21.8390    27.9670    28.7890 o          1 P1X      -0.630100
     28 O29         20.9700    24.8450    31.5730 oh         1 P1X      -0.500100
     29 H101        25.0490    28.0250    32.3020 h4         1 P1X       0.035100
     30 H131        24.0000    24.4020    35.4230 h4         1 P1X       0.162000
     31 H152        26.5700    25.2790    37.9700 h1         1 P1X       0.062200
     32 H151        25.4450    23.9870    37.5310 h1         1 P1X       0.062200
     33 H172        26.4370    21.8080    36.4760 hc         1 P1X       0.044700
     34 H171        28.0820    21.8200    35.8830 hc         1 P1X       0.044700
     35 H201        27.5670    24.6040    31.7880 ha         1 P1X       0.133500
     36 H241        24.8540    21.6250    34.7220 ha         1 P1X       0.108500
     37 H042        20.1930    26.1000    27.1590 h1         1 P1X       0.036200
     38 H041        19.2620    27.3840    27.9780 h1         1 P1X       0.036200
     39 H161        27.8790    23.2860    37.8100 hc         1 P1X       0.057200
     40 H162        28.3030    24.2510    36.4120 hc         1 P1X       0.057200
     41 H191        28.4150    23.9920    34.0410 ha         1 P1X       0.108500
     42 H231        24.0240    22.2400    32.4620 ha         1 P1X       0.133500
     43 H271        22.5980    24.6920    33.5890 ha         1 P1X       0.104000
     44 H051        20.3040    25.4580    29.9010 hn         1 P1X       0.345500
     45 H291        20.9330    24.2210    32.3300 ho         1 P1X       0.457000
     46 Cl22        25.1340    23.9190    30.3980 cl         1 P1X      -0.172000
@<TRIPOS>BOND
     1     1    13 ar  
     2     1    21 ar  
     3     1    29 1   
     4     2    14 2   
     5     2    22 1   
     6     2    30 1   
     7     3    15 1   
     8     3    22 1   
     9     3    31 1   
    10     3    32 1   
    11     4    15 1   
    12     4    16 1   
    13     4    33 1   
    14     4    34 1   
    15     5     6 ar  
    16     5    17 ar  
    17     5    35 1   
    18     6    18 ar  
    19     6    46 1   
    20     7    16 ar  
    21     7    18 ar  
    22     7    36 1   
    23     8    12 ar  
    24     8    19 ar  
    25     8    28 1   
    26     9    10 1   
    27     9    25 1   
    28     9    26 1   
    29    10    20 1   
    30    10    37 1   
    31    10    38 1   
    32    11    12 1   
    33    11    20 1   
    34    11    27 2   
    35    12    21 ar  
    36    13    14 1   
    37    13    19 ar  
    38    14    24 1   
    39    15    39 1   
    40    15    40 1   
    41    16    17 ar  
    42    17    41 1   
    43    18    42 1   
    44    19    43 1   
    45    20    44 1   
    46    22    23 1   
    47    23    24 2   
    48    28    45 1   
@<TRIPOS>SUBSTRUCTURE
     1 P1X         1 TEMP              0 ****  ****    0 ROOT
