@<TRIPOS>MOLECULE
P1X
   46    48     1     0     0
SMALL
abcg2


@<TRIPOS>ATOM
      1 C10         23.9940    26.5030    32.0540 ca         1 P1X       0.327900
      2 C13         24.4260    24.6710    35.3120 cc         1 P1X      -0.199000
      3 C15         25.9750    24.3510    37.2600 c3         1 P1X       0.086600
      4 C17         27.3320    22.6920    35.8250 c3         1 P1X      -0.025100
      5 C20         27.6950    24.6660    32.5870 ca         1 P1X      -0.096000
      6 C21         26.6920    24.0990    31.8170 ca         1 P1X       0.124000
      7 C24         26.1150    22.6390    33.6150 ca         1 P1X      -0.100500
      8 C28         21.7310    25.0190    31.7730 ca         1 P1X       0.108100
      9 C02         18.0900    26.9880    28.5290 c          1 P1X       0.715000
     10 C04         19.5140    26.4910    28.1960 c3         1 P1X      -0.058000
     11 C06         21.5750    25.9660    29.4060 c          1 P1X       0.504600
     12 C08         22.2160    25.8570    30.7640 ca         1 P1X       0.295500
     13 C11         23.5890    25.7080    33.1280 ca         1 P1X      -0.131500
     14 C12         24.3850    25.6460    34.3440 cd         1 P1X       0.273500
     15 C16         27.3340    23.7540    36.9270 c3         1 P1X      -0.090400
     16 C18         27.1060    23.1950    34.4210 ca         1 P1X      -0.096300
     17 C19         27.8930    24.2090    33.8810 ca         1 P1X      -0.100500
     18 C23         25.8980    23.0840    32.3190 ca         1 P1X      -0.096000
     19 C27         22.4350    24.9530    32.9680 ca         1 P1X      -0.184000
     20 N05         20.2900    26.3150    29.3960 ns         1 P1X      -0.446900
     21 N09         23.3270    26.5640    30.9180 nb         1 P1X      -0.605000
     22 N14         25.3910    25.0740    36.1450 na         1 P1X       0.124800
     23 N25         25.9180    26.2180    35.7420 nc         1 P1X      -0.213800
     24 N26         25.3190    26.5720    34.6610 nd         1 P1X      -0.346000
     25 O01         17.8080    27.1220    29.7360 o          1 P1X      -0.729000
     26 O03         17.3650    27.2020    27.5430 o          1 P1X      -0.729000
     27 O07         22.2390    25.7740    28.3960 o          1 P1X      -0.630100
     28 O29         20.6210    24.3040    31.5380 oh         1 P1X      -0.500100
     29 H101        24.9020    27.0890    32.1200 h4         1 P1X       0.035100
     30 H131        23.8840    23.7500    35.4460 h4         1 P1X       0.162000
     31 H152        26.0590    25.0390    38.1000 h1         1 P1X       0.062200
     32 H151        25.2680    23.5700    37.5410 h1         1 P1X       0.062200
     33 H172        26.5830    21.9310    36.0600 hc         1 P1X       0.044700
     34 H171        28.2990    22.1810    35.8590 hc         1 P1X       0.044700
     35 H201        28.3160    25.4570    32.1860 ha         1 P1X       0.133500
     36 H241        25.4850    21.8520    34.0100 ha         1 P1X       0.108500
     37 H042        19.4420    25.5520    27.6380 h1         1 P1X       0.036200
     38 H041        19.9950    27.2110    27.5270 h1         1 P1X       0.036200
     39 H161        27.7010    23.2910    37.8460 hc         1 P1X       0.057200
     40 H162        28.0390    24.5540    36.6930 hc         1 P1X       0.057200
     41 H191        28.6820    24.6570    34.4730 ha         1 P1X       0.108500
     42 H231        25.1080    22.6570    31.7170 ha         1 P1X       0.133500
     43 H271        22.0780    24.3140    33.7690 ha         1 P1X       0.104000
     44 H051        19.7820    26.4910    30.2520 hn         1 P1X       0.345500
     45 H291        20.3950    23.7590    32.3010 ho         1 P1X       0.457000
     46 CL22        26.4280    24.6720    30.2000 cl         1 P1X      -0.172000
@<TRIPOS>BOND
     1     1    13 ar  
     2     1    21 ar  
     3     1    29 1   
     4     2    14 2   
     5     2    22 1   
     6     2    30 1   
     7     3    15 1   
     8     3    22 1   
     9     3    31 1   
    10     3    32 1   
    11     4    15 1   
    12     4    16 1   
    13     4    33 1   
    14     4    34 1   
    15     5     6 ar  
    16     5    17 ar  
    17     5    35 1   
    18     6    18 ar  
    19     6    46 1   
    20     7    16 ar  
    21     7    18 ar  
    22     7    36 1   
    23     8    12 ar  
    24     8    19 ar  
    25     8    28 1   
    26     9    10 1   
    27     9    25 1   
    28     9    26 1   
    29    10    20 1   
    30    10    37 1   
    31    10    38 1   
    32    11    12 1   
    33    11    20 1   
    34    11    27 2   
    35    12    21 ar  
    36    13    14 1   
    37    13    19 ar  
    38    14    24 1   
    39    15    39 1   
    40    15    40 1   
    41    16    17 ar  
    42    17    41 1   
    43    18    42 1   
    44    19    43 1   
    45    20    44 1   
    46    22    23 1   
    47    23    24 2   
    48    28    45 1   
@<TRIPOS>SUBSTRUCTURE
     1 P1X         1 TEMP              0 ****  ****    0 ROOT
