@<TRIPOS>MOLECULE
P1Y
   31    32     1     0     0
SMALL
abcg2


@<TRIPOS>ATOM
      1 C01         -1.3990    -0.0000     1.3050 ca         1 P1Y      -0.030000
      2 C02         -2.6710    -0.0910     0.7700 ca         1 P1Y      -0.053900
      3 C03         -3.0860    -1.2260     0.0660 ca         1 P1Y       0.147100
      4 C04         -2.1750    -2.2690    -0.0800 ca         1 P1Y      -0.200000
      5 C05         -0.9000    -2.1710     0.4600 ca         1 P1Y      -0.049000
      6 C06         -0.4900    -1.0440     1.1580 ca         1 P1Y      -0.072300
      7 C07          0.8910    -0.9380     1.7310 c3         1 P1Y      -0.052400
      8 C08          1.9050    -0.2870     0.8190 ca         1 P1Y       0.070300
      9 N09          3.1520    -0.2830     1.2380 nb         1 P1Y      -0.130000
     10 C10          4.0670     0.3060     0.4610 ca         1 P1Y      -0.050500
     11 C11          3.7260     0.8900    -0.7500 ca         1 P1Y       0.037100
     12 C12          2.3640     0.8240    -1.0990 ca         1 P1Y       0.272300
     13 N13          1.4780     0.2480    -0.3250 nb         1 P1Y      -0.206000
     14 O14          4.5970     1.4860    -1.5600 oh         1 P1Y      -0.641100
     15 O15          1.9130     1.3480    -2.2370 oh         1 P1Y      -0.657300
     16 C16          5.5140     0.3470     0.9100 c          1 P1Y       0.622500
     17 O17          5.8260    -0.1520     1.9860 o          1 P1Y      -0.670500
     18 O18          6.2990     0.9260     0.0930 o          1 P1Y      -0.670500
     19 BR19        -3.8810     1.3380     0.9940 br         1 P1Y      -0.110100
     20 O20         -4.3360    -1.2290    -0.4170 os         1 P1Y      -0.331100
     21 C21         -4.7930    -2.3770    -1.1070 c3         1 P1Y       0.151900
     22 H01         -1.1050     0.8900     1.8470 ha         1 P1Y       0.131000
     23 H04         -2.4510    -3.1690    -0.6120 ha         1 P1Y       0.108000
     24 H05         -0.2140    -3.0000     0.3300 ha         1 P1Y       0.115000
     25 H07          0.8640    -0.3690     2.6650 hc         1 P1Y       0.059700
     26 H07A         1.2630    -1.9290     2.0010 hc         1 P1Y       0.059700
     27 H21         -4.2030    -2.5770    -2.0050 h1         1 P1Y       0.036700
     28 H21A        -4.7820    -3.2650    -0.4710 h1         1 P1Y       0.036700
     29 H21B        -5.8180    -2.1680    -1.4010 h1         1 P1Y       0.036700
     30 H10          5.4830     1.3730    -1.0360 ho         1 P1Y       0.559000
     31 H11          2.6390     1.7450    -2.7370 ho         1 P1Y       0.483000
@<TRIPOS>BOND
     1     1     2 ar  
     2     1     6 ar  
     3     1    22 1   
     4     2     3 ar  
     5     2    19 1   
     6     3     4 ar  
     7     3    20 1   
     8     4     5 ar  
     9     4    23 1   
    10     5     6 ar  
    11     5    24 1   
    12     6     7 1   
    13     7     8 1   
    14     7    25 1   
    15     7    26 1   
    16     8     9 ar  
    17     8    13 ar  
    18     9    10 ar  
    19    10    11 ar  
    20    10    16 1   
    21    11    12 ar  
    22    11    14 1   
    23    12    13 ar  
    24    12    15 1   
    25    14    30 1   
    26    15    31 1   
    27    16    17 1   
    28    16    18 1   
    29    20    21 1   
    30    21    27 1   
    31    21    28 1   
    32    21    29 1   
@<TRIPOS>SUBSTRUCTURE
     1 P1Y         1 TEMP              0 ****  ****    0 ROOT
