@<TRIPOS>MOLECULE
P1Y
   31    32     1     0     0
SMALL
No Charge or Current Charge


@<TRIPOS>ATOM
      1 C01         -1.5920     0.3780     0.8980 ca         1 P1Y      -0.030000
      2 C02         -2.7250    -0.0980     0.2150 ca         1 P1Y      -0.053900
      3 C03         -2.8760    -1.4760    -0.0430 ca         1 P1Y       0.147100
      4 C04         -1.8740    -2.3730     0.3900 ca         1 P1Y      -0.200000
      5 C05         -0.7420    -1.8930     1.0720 ca         1 P1Y      -0.049000
      6 C06         -0.5960    -0.5170     1.3310 ca         1 P1Y      -0.072300
      7 C07          0.6360     0.0020     2.0620 c3         1 P1Y      -0.052400
      8 C08          1.7340     0.4090     1.0890 ca         1 P1Y       0.070300
      9 N09          2.6150    -0.5510     0.7260 nb         1 P1Y      -0.130000
     10 C10          3.5980    -0.2120    -0.1470 ca         1 P1Y      -0.050500
     11 C11          3.6710     1.1140    -0.6440 ca         1 P1Y       0.037100
     12 C12          2.6990     2.0390    -0.1980 ca         1 P1Y       0.272300
     13 N13          1.7300     1.6930     0.6670 nb         1 P1Y      -0.206000
     14 O14          4.6520     1.4920    -1.5290 oh         1 P1Y      -0.641100
     15 O15          2.7320     3.3230    -0.6500 oh         1 P1Y      -0.657300
     16 C16          4.5990    -1.2830    -0.5650 c          1 P1Y       0.622500
     17 O17          4.4900    -2.4100    -0.1020 o          1 P1Y      -0.670500
     18 O18          5.4810    -0.9680    -1.3560 o          1 P1Y      -0.670500
     19 Br19        -4.0580     1.1580    -0.3590 br         1 P1Y      -0.110100
     20 O20         -4.0050    -1.9030    -0.7170 os         1 P1Y      -0.331100
     21 C21         -4.2390    -3.2890    -1.0240 c3         1 P1Y       0.151900
     22 H01         -1.4850     1.4430     1.0870 ha         1 P1Y       0.131000
     23 H04         -1.9540    -3.4400     0.2080 ha         1 P1Y       0.108000
     24 H05          0.0260    -2.5920     1.3970 ha         1 P1Y       0.115000
     25 H07          0.3610     0.8530     2.6980 hc         1 P1Y       0.059700
     26 H07A         1.0110    -0.7620     2.7540 hc         1 P1Y       0.059700
     27 H21         -3.4400    -3.6880    -1.6610 h1         1 P1Y       0.036700
     28 H21A        -4.2920    -3.8880    -0.1060 h1         1 P1Y       0.036700
     29 H21B        -5.1900    -3.4030    -1.5590 h1         1 P1Y       0.036700
     30 H10          5.2020     0.6670    -1.6810 ho         1 P1Y       0.559000
     31 H11          3.5060     3.3520    -1.2580 ho         1 P1Y       0.483000
@<TRIPOS>BOND
     1     1     2 ar  
     2     1     6 ar  
     3     1    22 1   
     4     2     3 ar  
     5     2    19 1   
     6     3     4 ar  
     7     3    20 1   
     8     4     5 ar  
     9     4    23 1   
    10     5     6 ar  
    11     5    24 1   
    12     6     7 1   
    13     7     8 1   
    14     7    25 1   
    15     7    26 1   
    16     8     9 ar  
    17     8    13 ar  
    18     9    10 ar  
    19    10    11 ar  
    20    10    16 1   
    21    11    12 ar  
    22    11    14 1   
    23    12    13 ar  
    24    12    15 1   
    25    14    30 1   
    26    15    31 1   
    27    16    17 1   
    28    16    18 1   
    29    20    21 1   
    30    21    27 1   
    31    21    28 1   
    32    21    29 1   
@<TRIPOS>SUBSTRUCTURE
     1 P1Y         1 TEMP              0 ****  ****    0 ROOT
