@<TRIPOS>MOLECULE
P1Z
   43    45     1     0     0
SMALL
bcc


@<TRIPOS>ATOM
      1 C16         -3.0370    -1.4210     2.0320 ca         1 P1Z      -0.118750
      2 C17         -1.9130    -0.8600     1.4460 ca         1 P1Z      -0.121000
      3 C12         -1.5750    -1.2110     0.1430 ca         1 P1Z       0.040100
      4 C13         -2.3540    -2.1110    -0.5710 ca         1 P1Z      -0.121000
      5 C14         -3.4660    -2.6800     0.0330 ca         1 P1Z      -0.118750
      6 C15         -3.8130    -2.3350     1.3320 ca         1 P1Z      -0.127500
      7 C8          -1.9470     3.7580     0.4580 ca         1 P1Z      -0.118750
      8 C9          -2.8970     3.7100    -0.5520 ca         1 P1Z      -0.127500
      9 C10         -2.9140     2.6350    -1.4310 ca         1 P1Z      -0.118750
     10 C11         -1.9800     1.6170    -1.3130 ca         1 P1Z      -0.121000
     11 C6          -1.0340     1.6740    -0.2960 ca         1 P1Z       0.040100
     12 C7          -1.0200     2.7350     0.5990 ca         1 P1Z      -0.121000
     13 C21          6.6860    -0.0370     0.8190 c3         1 P1Z      -0.089100
     14 C20          5.3780    -0.8120     0.9010 c3         1 P1Z      -0.074400
     15 C18          2.9820    -0.9880     0.1290 c3         1 P1Z      -0.050400
     16 N2          -0.4260    -0.6610    -0.4740 n          1 P1Z      -0.256100
     17 C3           0.6830    -1.4020    -0.7930 c          1 P1Z       0.707000
     18 C4           1.8690    -0.4700    -0.7930 c5         1 P1Z      -0.243700
     19 C5           1.2750     0.8570    -0.3970 c          1 P1Z       0.707000
     20 N1          -0.0620     0.6540    -0.1560 n          1 P1Z      -0.256100
     21 O3           0.6830    -2.5960    -0.9710 o          1 P1Z      -0.566500
     22 O5           1.8190     1.9340    -0.3370 o          1 P1Z      -0.566500
     23 H16         -3.3000    -1.1460     3.0450 ha         1 P1Z       0.135000
     24 H17         -1.3040    -0.1590     2.0030 ha         1 P1Z       0.146750
     25 H13         -2.1040    -2.3570    -1.5940 ha         1 P1Z       0.146750
     26 H14         -4.0700    -3.3850    -0.5230 ha         1 P1Z       0.135000
     27 H15         -4.6860    -2.7740     1.7960 ha         1 P1Z       0.134000
     28 H8          -1.9320     4.5880     1.1520 ha         1 P1Z       0.135000
     29 H9          -3.6250     4.5040    -0.6530 ha         1 P1Z       0.134000
     30 H10         -3.6520     2.5890    -2.2210 ha         1 P1Z       0.135000
     31 H11         -1.9880     0.7890    -2.0110 ha         1 P1Z       0.146750
     32 H7          -0.3020     2.7580     1.4070 ha         1 P1Z       0.146750
     33 H211         6.5540     0.9950     1.1470 hc         1 P1Z       0.033367
     34 H212         7.4570    -0.4870     1.4440 hc         1 P1Z       0.033367
     35 H213         7.0650    -0.0110    -0.2050 hc         1 P1Z       0.033367
     36 H201         5.5450    -1.8490     0.5970 hc         1 P1Z       0.037700
     37 H202         5.0390    -0.8500     1.9410 hc         1 P1Z       0.037700
     38 H191         4.1230     0.8380     0.3360 hc         1 P1Z       0.050700
     39 H192         4.6150    -0.1730    -1.0080 hc         1 P1Z       0.050700
     40 H181         3.1720    -2.0270    -0.1490 hc         1 P1Z       0.057700
     41 H182         2.6220    -1.0010     1.1620 hc         1 P1Z       0.057700
     42 H4           2.2590    -0.3750    -1.8130 hc         1 P1Z       0.113700
     43 C19          4.2820    -0.2000     0.0350 c3         1 P1Z      -0.080400
@<TRIPOS>BOND
     1     1     2 ar  
     2     1     6 ar  
     3     1    23 1   
     4     2     3 ar  
     5     2    24 1   
     6     3     4 ar  
     7     3    16 1   
     8     4     5 ar  
     9     4    25 1   
    10     5     6 ar  
    11     5    26 1   
    12     6    27 1   
    13     7     8 ar  
    14     7    12 ar  
    15     7    28 1   
    16     8     9 ar  
    17     8    29 1   
    18     9    10 ar  
    19     9    30 1   
    20    10    11 ar  
    21    10    31 1   
    22    11    12 ar  
    23    11    20 1   
    24    12    32 1   
    25    13    14 1   
    26    13    33 1   
    27    13    34 1   
    28    13    35 1   
    29    14    36 1   
    30    14    37 1   
    31    14    43 1   
    32    15    18 1   
    33    15    40 1   
    34    15    41 1   
    35    15    43 1   
    36    16    17 1   
    37    16    20 1   
    38    17    18 1   
    39    17    21 2   
    40    18    19 1   
    41    18    42 1   
    42    19    20 1   
    43    19    22 2   
    44    38    43 1   
    45    39    43 1   
@<TRIPOS>SUBSTRUCTURE
     1 P1Z         1 TEMP              0 ****  ****    0 ROOT
