@<TRIPOS>MOLECULE
P1Z
   43    45     1     0     0
SMALL
No Charge or Current Charge


@<TRIPOS>ATOM
      1 C16         -3.1690    -1.2910     1.9410 ca         1 P1Z      -0.100750
      2 C17         -1.9290    -0.8790     1.4240 ca         1 P1Z      -0.103000
      3 C12         -1.5010    -1.3240     0.1570 ca         1 P1Z      -0.052500
      4 C13         -2.3330    -2.1850    -0.5880 ca         1 P1Z      -0.103000
      5 C14         -3.5730    -2.5970    -0.0700 ca         1 P1Z      -0.100750
      6 C15         -3.9910    -2.1520     1.1950 ca         1 P1Z      -0.109500
      7 C8          -1.5410     3.6830     0.6750 ca         1 P1Z      -0.100750
      8 C9          -2.7200     3.6420    -0.0900 ca         1 P1Z      -0.109500
      9 C10         -2.9530     2.5650    -0.9620 ca         1 P1Z      -0.100750
     10 C11         -2.0100     1.5280    -1.0680 ca         1 P1Z      -0.103000
     11 C6          -0.8310     1.5610    -0.2960 ca         1 P1Z      -0.052500
     12 C7          -0.5980     2.6450     0.5700 ca         1 P1Z      -0.103000
     13 C21          6.4660     0.3290     1.1200 c3         1 P1Z      -0.089100
     14 C20          5.1870    -0.5300     1.1310 c3         1 P1Z      -0.074400
     15 C18          2.9370    -1.0500    -0.0100 c3         1 P1Z      -0.050400
     16 N2          -0.2330    -0.8800    -0.3590 n          1 P1Z      -0.096500
     17 C3           0.7150    -1.6320    -1.0760 c          1 P1Z       0.564500
     18 C4           1.9610    -0.7600    -1.1880 c5         1 P1Z      -0.243700
     19 C5           1.3560     0.6350    -1.0890 c          1 P1Z       0.564500
     20 N1           0.1430     0.5110    -0.3910 n          1 P1Z      -0.096500
     21 O3           0.5470    -2.7510    -1.5420 o          1 P1Z      -0.491000
     22 O5           1.7580     1.6610    -1.6230 o          1 P1Z      -0.491000
     23 H16         -3.4930    -0.9430     2.9200 ha         1 P1Z       0.117000
     24 H17         -1.3000    -0.2120     2.0090 ha         1 P1Z       0.128750
     25 H13         -2.0320    -2.5280    -1.5750 ha         1 P1Z       0.128750
     26 H14         -4.2110    -3.2600    -0.6510 ha         1 P1Z       0.117000
     27 H15         -4.9510    -2.4710     1.5950 ha         1 P1Z       0.116000
     28 H8          -1.3590     4.5170     1.3480 ha         1 P1Z       0.117000
     29 H9          -3.4500     4.4440    -0.0080 ha         1 P1Z       0.116000
     30 H10         -3.8640     2.5340    -1.5560 ha         1 P1Z       0.117000
     31 H11         -2.1970     0.7000    -1.7480 ha         1 P1Z       0.128750
     32 H7           0.3120     2.6820     1.1650 ha         1 P1Z       0.128750
     33 H211         6.2200     1.3930     1.2150 hc         1 P1Z       0.033367
     34 H212         7.1200     0.0520     1.9550 hc         1 P1Z       0.033367
     35 H213         7.0230     0.1830     0.1860 hc         1 P1Z       0.033367
     36 H201         5.4690    -1.5890     1.0710 hc         1 P1Z       0.037700
     37 H202         4.6730    -0.3890     2.0900 hc         1 P1Z       0.037700
     38 H191         3.9510     0.8720     0.0400 hc         1 P1Z       0.050700
     39 H192         4.7390    -0.3310    -0.9810 hc         1 P1Z       0.050700
     40 H181         3.2300    -2.1080    -0.0390 hc         1 P1Z       0.057700
     41 H182         2.4250    -0.9030     0.9500 hc         1 P1Z       0.057700
     42 H4           2.4950    -0.9220    -2.1280 hc         1 P1Z       0.113700
     43 C19          4.2210    -0.1900    -0.0240 c3         1 P1Z      -0.080400
@<TRIPOS>BOND
     1     1     2 ar  
     2     1     6 ar  
     3     1    23 1   
     4     2     3 ar  
     5     2    24 1   
     6     3     4 ar  
     7     3    16 1   
     8     4     5 ar  
     9     4    25 1   
    10     5     6 ar  
    11     5    26 1   
    12     6    27 1   
    13     7     8 ar  
    14     7    12 ar  
    15     7    28 1   
    16     8     9 ar  
    17     8    29 1   
    18     9    10 ar  
    19     9    30 1   
    20    10    11 ar  
    21    10    31 1   
    22    11    12 ar  
    23    11    20 1   
    24    12    32 1   
    25    13    14 1   
    26    13    33 1   
    27    13    34 1   
    28    13    35 1   
    29    14    36 1   
    30    14    37 1   
    31    14    43 1   
    32    15    18 1   
    33    15    40 1   
    34    15    41 1   
    35    15    43 1   
    36    16    17 1   
    37    16    20 1   
    38    17    18 1   
    39    17    21 2   
    40    18    19 1   
    41    18    42 1   
    42    19    20 1   
    43    19    22 2   
    44    38    43 1   
    45    39    43 1   
@<TRIPOS>SUBSTRUCTURE
     1 P1Z         1 TEMP              0 ****  ****    0 ROOT
