@<TRIPOS>MOLECULE
P20
   28    28     1     0     0
SMALL
abcg2


@<TRIPOS>ATOM
      1 S           -3.7220     1.4330     1.3770 sh         1 P20      -0.397800
      2 C1          -2.0350     0.7400     1.2670 c3         1 P20       0.124600
      3 C2          -1.7460     0.2030    -0.1290 c3         1 P20      -0.176400
      4 C3          -0.3470    -0.3580    -0.1590 ca         1 P20       0.037700
      5 C4           0.7330     0.5040    -0.3300 ca         1 P20      -0.128000
      6 C5           2.0520     0.0610    -0.3230 ca         1 P20       0.285000
      7 C6          -0.0560    -1.7020     0.0690 ca         1 P20       0.090000
      8 C7           1.2500    -2.1710     0.0720 ca         1 P20      -0.095000
      9 C8           2.3030    -1.3000    -0.1420 ca         1 P20      -0.178000
     10 N9           3.0830     0.9720    -0.5570 nu         1 P20      -0.989200
     11 C10          4.2700     1.1050     0.1450 c2         1 P20       0.847100
     12 N11          5.2350     1.8550    -0.2410 n2         1 P20      -0.931100
     13 N12          4.3530     0.4380     1.3280 nv         1 P20      -1.067200
     14 C13         -1.9320     1.2700    -1.2360 c          1 P20       0.726000
     15 O14         -1.9200     0.8450    -2.4040 o          1 P20      -0.711000
     16 O15         -2.0650     2.4520    -0.8630 o          1 P20      -0.711000
     17 CL16        -1.3300    -2.8470     0.3660 cl         1 P20      -0.230000
     18 HS          -4.1740     0.6240     2.3420 hs         1 P20       0.135800
     19 H11A        -1.9510    -0.0510     2.0110 h1         1 P20       0.044200
     20 H12         -1.3250     1.5210     1.5340 h1         1 P20       0.044200
     21 H2          -2.4560    -0.6020    -0.3330 hc         1 P20       0.068700
     22 H4           0.5410     1.5620    -0.4680 ha         1 P20       0.150000
     23 H7           1.4480    -3.2230     0.2240 ha         1 P20       0.110000
     24 H8           3.3110    -1.6910    -0.1880 ha         1 P20       0.104000
     25 HN9          2.8490     1.7620    -1.1390 hn         1 P20       0.499000
     26 H11          5.0340     2.2600    -1.1470 hn         1 P20       0.382400
     27 H121         5.2740     0.2880     1.6990 hn         1 P20       0.482500
     28 H122         3.6650    -0.2440     1.5930 hn         1 P20       0.482500
@<TRIPOS>BOND
     1     1     2 1   
     2     1    18 1   
     3     2     3 1   
     4     2    19 1   
     5     2    20 1   
     6     3     4 1   
     7     3    14 1   
     8     3    21 1   
     9     4     5 ar  
    10     4     7 ar  
    11     5     6 ar  
    12     5    22 1   
    13     6     9 ar  
    14     6    10 1   
    15     7     8 ar  
    16     7    17 1   
    17     8     9 ar  
    18     8    23 1   
    19     9    24 1   
    20    10    11 1   
    21    10    25 1   
    22    11    12 2   
    23    11    13 1   
    24    12    26 1   
    25    13    27 1   
    26    13    28 1   
    27    14    15 1   
    28    14    16 1   
@<TRIPOS>SUBSTRUCTURE
     1 P20         1 TEMP              0 ****  ****    0 ROOT
