@<TRIPOS>MOLECULE
P20
   28    28     1     0     0
SMALL
No Charge or Current Charge


@<TRIPOS>ATOM
      1 S           -3.9820     1.1210     1.2030 sh         1 P20      -0.397800
      2 C1          -2.1540     0.8910     1.0210 c3         1 P20       0.124600
      3 C2          -1.7550     0.0080    -0.1820 c3         1 P20      -0.176400
      4 C3          -0.2820    -0.4450    -0.1680 ca         1 P20       0.037700
      5 C4           0.7250     0.3980     0.3620 ca         1 P20      -0.128000
      6 C5           2.0720     0.0030     0.3730 ca         1 P20       0.285000
      7 C6           0.1040    -1.7010    -0.7030 ca         1 P20       0.090000
      8 C7           1.4520    -2.0980    -0.6800 ca         1 P20      -0.095000
      9 C8           2.4310    -1.2520    -0.1380 ca         1 P20      -0.178000
     10 N9           3.0370     0.8510     0.9150 nu         1 P20      -0.989200
     11 C10          4.1250     1.3540     0.3860 c2         1 P20       0.847100
     12 N11          4.5540     0.9830    -0.7100 n2         1 P20      -0.931100
     13 N12          4.8680     1.4940     1.4180 nv         1 P20      -1.067200
     14 C13         -2.0800     0.7110    -1.5090 c          1 P20       0.726000
     15 O14         -2.8910     0.1880    -2.2590 o          1 P20      -0.711000
     16 O15         -1.4680     1.7320    -1.7870 o          1 P20      -0.711000
     17 Cl16        -1.0630    -2.8180    -1.4170 cl         1 P20      -0.230000
     18 HS          -3.9240     1.8940     2.3120 hs         1 P20       0.135800
     19 H11A        -1.7870     0.4280     1.9460 h1         1 P20       0.044200
     20 H12         -1.6970     1.8850     0.9330 h1         1 P20       0.044200
     21 H2          -2.3960    -0.8780    -0.1130 hc         1 P20       0.068700
     22 H4           0.4700     1.3770     0.7520 ha         1 P20       0.150000
     23 H7           1.7370    -3.0670    -1.0830 ha         1 P20       0.110000
     24 H8           3.4680    -1.5750    -0.1150 ha         1 P20       0.104000
     25 HN9          2.6560     1.5310     1.5620 hn         1 P20       0.499000
     26 H11          3.7470     0.5490    -1.1670 hn         1 P20       0.382400
     27 H121         5.8200     1.3340     1.1280 hn         1 P20       0.482500
     28 H122         4.5530     0.8090     2.0850 hn         1 P20       0.482500
@<TRIPOS>BOND
     1     1     2 1   
     2     1    18 1   
     3     2     3 1   
     4     2    19 1   
     5     2    20 1   
     6     3     4 1   
     7     3    14 1   
     8     3    21 1   
     9     4     5 ar  
    10     4     7 ar  
    11     5     6 ar  
    12     5    22 1   
    13     6     9 ar  
    14     6    10 1   
    15     7     8 ar  
    16     7    17 1   
    17     8     9 ar  
    18     8    23 1   
    19     9    24 1   
    20    10    11 1   
    21    10    25 1   
    22    11    12 2   
    23    11    13 1   
    24    12    26 1   
    25    13    27 1   
    26    13    28 1   
    27    14    15 1   
    28    14    16 1   
@<TRIPOS>SUBSTRUCTURE
     1 P20         1 TEMP              0 ****  ****    0 ROOT
