@<TRIPOS>MOLECULE
P21
   60    62     1     0     0
SMALL
abcg2


@<TRIPOS>ATOM
      1 CL15        68.2210    32.0870    33.8510 cl         1 P21      -0.209000
      2 C11         68.6360    30.9720    35.1360 ca         1 P21       0.134000
      3 C14         67.6750    30.0850    35.6020 ca         1 P21      -0.106500
      4 C9          68.0140    29.1980    36.6150 ca         1 P21      -0.071000
      5 C13         69.9200    30.9920    35.6640 ca         1 P21      -0.106500
      6 C8          70.2400    30.1110    36.6890 ca         1 P21      -0.071000
      7 C5          69.2900    29.2110    37.1720 ca         1 P21      -0.134600
      8 C1          69.6530    28.1880    38.2080 c          1 P21       0.604700
      9 O7          69.6750    26.9950    37.8830 o          1 P21      -0.589100
     10 N2          69.9630    28.6050    39.4540 n          1 P21      -0.408800
     11 C12         70.4030    27.5900    40.4180 c3         1 P21       0.101000
     12 C19         71.8730    27.2100    40.2430 c3         1 P21      -0.094400
     13 C3          69.7360    29.9790    39.9230 c6         1 P21       0.112700
     14 C6          71.0050    30.5820    40.5250 c6         1 P21       0.155800
     15 N4          70.7840    31.9740    40.9110 n3         1 P21      -0.719600
     16 C18         69.7150    32.0700    41.9070 c6         1 P21       0.159800
     17 C21         68.4030    31.5200    41.3630 c6         1 P21      -0.075400
     18 C20         68.5630    30.0730    40.8980 c6         1 P21      -0.091400
     19 C10         72.0320    32.5730    41.3780 c3         1 P21       0.167800
     20 C16         71.9930    34.1040    41.4430 c3         1 P21      -0.030100
     21 C17         73.3200    34.6570    41.8930 ca         1 P21      -0.084300
     22 C24         73.6120    34.7860    43.2530 ca         1 P21      -0.107000
     23 C28         74.8530    35.2510    43.6770 ca         1 P21      -0.109000
     24 C29         75.8250    35.5960    42.7430 ca         1 P21      -0.110000
     25 C27         75.5460    35.4730    41.3850 ca         1 P21      -0.109000
     26 C25         74.3040    35.0060    40.9670 ca         1 P21      -0.107000
     27 C23         72.3190    26.1590    41.2390 c3         1 P21       0.160600
     28 O22         71.6320    24.9410    40.9800 os         1 P21      -0.457000
     29 C26         71.9690    23.9230    41.9060 c3         1 P21       0.144900
     30 H14         66.6800    30.0860    35.1790 ha         1 P21       0.132500
     31 H13         70.6570    31.6860    35.2850 ha         1 P21       0.132500
     32 H9          67.2750    28.4940    36.9780 ha         1 P21       0.126000
     33 H8          71.2340    30.1280    37.1160 ha         1 P21       0.126000
     34 H121        70.2420    27.9850    41.4190 h1         1 P21       0.060700
     35 H122        69.7760    26.7080    40.3020 h1         1 P21       0.060700
     36 H3          69.4830    30.5750    39.0510 h1         1 P21       0.079700
     37 H191        72.0400    26.8440    39.2280 hc         1 P21       0.058200
     38 H192        72.4990    28.0950    40.3770 hc         1 P21       0.058200
     39 H231        73.4010    25.9960    41.1600 h1         1 P21       0.021700
     40 H232        72.1070    26.4880    42.2670 h1         1 P21       0.021700
     41 H6C1        71.3320    29.9820    41.3910 h1         1 P21       0.038200
     42 H6C2        71.8040    30.5490    39.7820 h1         1 P21       0.038200
     43 H201        67.6540    29.7140    40.4100 hc         1 P21       0.048700
     44 H202        68.7440    29.4330    41.7660 hc         1 P21       0.048700
     45 H181        69.9960    31.5190    42.8240 h1         1 P21       0.034200
     46 H182        69.5860    33.1150    42.1870 h1         1 P21       0.034200
     47 H101        72.3150    32.1740    42.3680 h1         1 P21       0.035200
     48 H102        72.8220    32.2790    40.6830 h1         1 P21       0.035200
     49 H211        67.6350    31.5840    42.1360 hc         1 P21       0.052200
     50 H212        68.0760    32.1430    40.5260 hc         1 P21       0.052200
     51 H161        71.7390    34.4880    40.4530 hc         1 P21       0.055200
     52 H162        71.2150    34.4300    42.1340 hc         1 P21       0.055200
     53 H24         72.8570    34.5230    43.9850 ha         1 P21       0.110500
     54 H25         74.0920    34.9130    39.9080 ha         1 P21       0.110500
     55 H28         75.0590    35.3460    44.7360 ha         1 P21       0.112500
     56 H29         76.7900    35.9610    43.0700 ha         1 P21       0.113000
     57 H27         76.2950    35.7430    40.6510 ha         1 P21       0.112500
     58 H261        73.0420    23.7010    41.8770 h1         1 P21       0.028700
     59 H262        71.7000    24.2140    42.9290 h1         1 P21       0.028700
     60 H263        71.4100    23.0290    41.6300 h1         1 P21       0.028700
@<TRIPOS>BOND
     1     1     2 1   
     2     2     3 ar  
     3     2     5 ar  
     4     3     4 ar  
     5     3    30 1   
     6     4     7 ar  
     7     4    32 1   
     8     5     6 ar  
     9     5    31 1   
    10     6     7 ar  
    11     6    33 1   
    12     7     8 1   
    13     8     9 2   
    14     8    10 1   
    15    10    11 1   
    16    10    13 1   
    17    11    12 1   
    18    11    34 1   
    19    11    35 1   
    20    12    27 1   
    21    12    37 1   
    22    12    38 1   
    23    13    14 1   
    24    13    18 1   
    25    13    36 1   
    26    14    15 1   
    27    14    41 1   
    28    14    42 1   
    29    15    16 1   
    30    15    19 1   
    31    16    17 1   
    32    16    45 1   
    33    16    46 1   
    34    17    18 1   
    35    17    49 1   
    36    17    50 1   
    37    18    43 1   
    38    18    44 1   
    39    19    20 1   
    40    19    47 1   
    41    19    48 1   
    42    20    21 1   
    43    20    51 1   
    44    20    52 1   
    45    21    22 ar  
    46    21    26 ar  
    47    22    23 ar  
    48    22    53 1   
    49    23    24 ar  
    50    23    55 1   
    51    24    25 ar  
    52    24    56 1   
    53    25    26 ar  
    54    25    57 1   
    55    26    54 1   
    56    27    28 1   
    57    27    39 1   
    58    27    40 1   
    59    28    29 1   
    60    29    58 1   
    61    29    59 1   
    62    29    60 1   
@<TRIPOS>SUBSTRUCTURE
     1 P21         1 TEMP              0 ****  ****    0 ROOT
