@<TRIPOS>MOLECULE
P21
   60    62     1     0     0
SMALL
No Charge or Current Charge


@<TRIPOS>ATOM
      1 Cl15        68.6320    31.9270    33.4740 cl         1 P21      -0.209000
      2 C11         68.8060    30.8470    34.8510 ca         1 P21       0.134000
      3 C14         67.8110    29.8970    35.1270 ca         1 P21      -0.106500
      4 C9          67.9490    29.0320    36.2270 ca         1 P21      -0.071000
      5 C13         69.9450    30.9280    35.6660 ca         1 P21      -0.106500
      6 C8          70.0870    30.0640    36.7660 ca         1 P21      -0.071000
      7 C5          69.0770    29.1210    37.0730 ca         1 P21      -0.134600
      8 C1          69.2170    28.1590    38.2340 c          1 P21       0.604700
      9 O7          68.8380    27.0000    38.1130 o          1 P21      -0.589100
     10 N2          69.8900    28.5950    39.4050 n          1 P21      -0.408800
     11 C12         70.3700    27.5710    40.3750 c3         1 P21       0.101000
     12 C19         71.8300    27.1510    40.1080 c3         1 P21      -0.094400
     13 C3          69.7000    29.9930    39.9150 c6         1 P21       0.112700
     14 C6          70.9880    30.5910    40.5580 c6         1 P21       0.155800
     15 N4          70.7940    32.0000    41.0100 n3         1 P21      -0.719600
     16 C18         69.6730    32.0960    41.9920 c6         1 P21       0.159800
     17 C21         68.3510    31.5380    41.4100 c6         1 P21      -0.075400
     18 C20         68.5240    30.0800    40.9230 c6         1 P21      -0.091400
     19 C10         72.0650    32.5980    41.4940 c3         1 P21       0.167800
     20 C16         72.0180    34.1220    41.7500 c3         1 P21      -0.030100
     21 C17         73.3970    34.6870    42.0670 ca         1 P21      -0.084300
     22 C24         73.9080    34.6160    43.3780 ca         1 P21      -0.107000
     23 C28         75.1820    35.1330    43.6710 ca         1 P21      -0.109000
     24 C29         75.9530    35.7220    42.6550 ca         1 P21      -0.110000
     25 C27         75.4500    35.7940    41.3450 ca         1 P21      -0.109000
     26 C25         74.1750    35.2780    41.0520 ca         1 P21      -0.107000
     27 C23         72.3920    26.1800    41.1630 c3         1 P21       0.160600
     28 O22         71.6140    24.9730    41.1230 os         1 P21      -0.457000
     29 C26         72.0250    23.9680    42.0650 c3         1 P21       0.144900
     30 H14         66.9340    29.8300    34.4880 ha         1 P21       0.132500
     31 H13         70.7220    31.6540    35.4400 ha         1 P21       0.132500
     32 H9          67.1720    28.2970    36.4290 ha         1 P21       0.126000
     33 H8          70.9890    30.1220    37.3710 ha         1 P21       0.126000
     34 H121        70.3080    27.9650    41.3960 h1         1 P21       0.060700
     35 H122        69.7220    26.6850    40.3480 h1         1 P21       0.060700
     36 H3          69.4340    30.6570    39.0850 h1         1 P21       0.079700
     37 H191        71.9020    26.6900    39.1160 hc         1 P21       0.058200
     38 H192        72.4650    28.0450    40.0880 hc         1 P21       0.058200
     39 H231        73.4450    25.9680    40.9370 h1         1 P21       0.021700
     40 H232        72.3390    26.6460    42.1570 h1         1 P21       0.021700
     41 H6C1        71.3010    29.9690    41.4090 h1         1 P21       0.038200
     42 H6C2        71.7960    30.5440    39.8130 h1         1 P21       0.038200
     43 H201        67.5960    29.7330    40.4490 hc         1 P21       0.048700
     44 H202        68.6990    29.4280    41.7890 hc         1 P21       0.048700
     45 H181        69.9240    31.5430    42.9090 h1         1 P21       0.034200
     46 H182        69.4970    33.1410    42.2830 h1         1 P21       0.034200
     47 H101        72.3880    32.0970    42.4170 h1         1 P21       0.035200
     48 H102        72.8500    32.4210    40.7460 h1         1 P21       0.035200
     49 H211        67.5610    31.5880    42.1700 hc         1 P21       0.052200
     50 H212        68.0240    32.1720    40.5750 hc         1 P21       0.052200
     51 H161        71.5980    34.6170    40.8670 hc         1 P21       0.055200
     52 H162        71.3360    34.3380    42.5800 hc         1 P21       0.055200
     53 H24         73.3180    34.1600    44.1700 ha         1 P21       0.110500
     54 H25         73.7940    35.3350    40.0350 ha         1 P21       0.110500
     55 H28         75.5710    35.0750    44.6850 ha         1 P21       0.112500
     56 H29         76.9400    36.1210    42.8820 ha         1 P21       0.113000
     57 H27         76.0460    36.2490    40.5580 ha         1 P21       0.112500
     58 H261        73.0640    23.6640    41.8820 h1         1 P21       0.028700
     59 H262        71.9470    24.3430    43.0940 h1         1 P21       0.028700
     60 H263        71.3880    23.0790    41.9760 h1         1 P21       0.028700
@<TRIPOS>BOND
     1     1     2 1   
     2     2     3 ar  
     3     2     5 ar  
     4     3     4 ar  
     5     3    30 1   
     6     4     7 ar  
     7     4    32 1   
     8     5     6 ar  
     9     5    31 1   
    10     6     7 ar  
    11     6    33 1   
    12     7     8 1   
    13     8     9 2   
    14     8    10 1   
    15    10    11 1   
    16    10    13 1   
    17    11    12 1   
    18    11    34 1   
    19    11    35 1   
    20    12    27 1   
    21    12    37 1   
    22    12    38 1   
    23    13    14 1   
    24    13    18 1   
    25    13    36 1   
    26    14    15 1   
    27    14    41 1   
    28    14    42 1   
    29    15    16 1   
    30    15    19 1   
    31    16    17 1   
    32    16    45 1   
    33    16    46 1   
    34    17    18 1   
    35    17    49 1   
    36    17    50 1   
    37    18    43 1   
    38    18    44 1   
    39    19    20 1   
    40    19    47 1   
    41    19    48 1   
    42    20    21 1   
    43    20    51 1   
    44    20    52 1   
    45    21    22 ar  
    46    21    26 ar  
    47    22    23 ar  
    48    22    53 1   
    49    23    24 ar  
    50    23    55 1   
    51    24    25 ar  
    52    24    56 1   
    53    25    26 ar  
    54    25    57 1   
    55    26    54 1   
    56    27    28 1   
    57    27    39 1   
    58    27    40 1   
    59    28    29 1   
    60    29    58 1   
    61    29    59 1   
    62    29    60 1   
@<TRIPOS>SUBSTRUCTURE
     1 P21         1 TEMP              0 ****  ****    0 ROOT
