@<TRIPOS>MOLECULE
P24
   26    25     1     0     0
SMALL
bcc


@<TRIPOS>ATOM
      1 N1          -0.3050     0.0370    -4.8700 n8         1 P24      -0.888800
      2 C2           0.5010     0.0190    -3.6590 c3         1 P24       0.144800
      3 C3          -0.3900     0.0440    -2.4280 c3         1 P24       0.155800
      4 N4           0.3970     0.0020    -1.2120 n7         1 P24      -0.811200
      5 C5          -0.4130     0.0160    -0.0090 c3         1 P24       0.162800
      6 C6           0.4490    -0.0190     1.2440 c3         1 P24      -0.079400
      7 C7          -0.3780     0.0030     2.5220 c3         1 P24      -0.078400
      8 C8           0.4800    -0.0460     3.7770 c3         1 P24       0.149800
      9 N9          -0.3460    -0.0160     4.9760 n8         1 P24      -0.884800
     10 HN11        -0.7870    -0.8490    -4.9630 hn         1 P24       0.338300
     11 HN12         0.3000     0.1020    -5.6780 hn         1 P24       0.338300
     12 H21          1.1350     0.9110    -3.6570 h1         1 P24       0.033700
     13 H22          1.1770    -0.8430    -3.5850 h1         1 P24       0.033700
     14 H31         -1.0440    -0.8360    -2.4420 h1         1 P24       0.036700
     15 H32         -1.0530     0.9220    -2.4830 h1         1 P24       0.036700
     16 HN4          1.0130     0.8070    -1.1960 hn         1 P24       0.347800
     17 H51         -1.0630    -0.8650    -0.0240 h1         1 P24       0.029200
     18 H52         -1.0850     0.8890     0.0370 h1         1 P24       0.029200
     19 H61          1.1310     0.8380     1.2380 hc         1 P24       0.043700
     20 H62          1.0770    -0.9150     1.2220 hc         1 P24       0.043700
     21 H71         -1.0730    -0.8430     2.5320 hc         1 P24       0.046200
     22 H72         -0.9940     0.9090     2.5420 hc         1 P24       0.046200
     23 H81          1.2180     0.7680     3.7330 h1         1 P24       0.026200
     24 H82          1.0540    -0.9770     3.7800 h1         1 P24       0.026200
     25 HN91         0.2450    -0.0810     5.7950 hn         1 P24       0.335800
     26 HN92        -0.7990     0.8880     5.0420 hn         1 P24       0.335800
@<TRIPOS>BOND
     1     1     2 1   
     2     1    10 1   
     3     1    11 1   
     4     2     3 1   
     5     2    12 1   
     6     2    13 1   
     7     3     4 1   
     8     3    14 1   
     9     3    15 1   
    10     4     5 1   
    11     4    16 1   
    12     5     6 1   
    13     5    17 1   
    14     5    18 1   
    15     6     7 1   
    16     6    19 1   
    17     6    20 1   
    18     7     8 1   
    19     7    21 1   
    20     7    22 1   
    21     8     9 1   
    22     8    23 1   
    23     8    24 1   
    24     9    25 1   
    25     9    26 1   
@<TRIPOS>SUBSTRUCTURE
     1 P24         1 TEMP              0 ****  ****    0 ROOT
