@<TRIPOS>MOLECULE
P24
   26    25     1     0     0
SMALL
No Charge or Current Charge


@<TRIPOS>ATOM
      1 N1          -0.2100     0.0420    -5.0120 n8         1 P24      -0.999200
      2 C2           0.5150     0.0190    -3.7170 c3         1 P24       0.144800
      3 C3          -0.4320     0.0530    -2.4830 c3         1 P24       0.155800
      4 N4           0.3310     0.0280    -1.2140 n7         1 P24      -0.866400
      5 C5          -0.4900     0.0320     0.0090 c3         1 P24       0.162800
      6 C6           0.4130    -0.0100     1.2590 c3         1 P24      -0.079400
      7 C7          -0.3880    -0.0140     2.5800 c3         1 P24      -0.078400
      8 C8           0.5170    -0.0580     3.8290 c3         1 P24       0.149800
      9 N9          -0.2750    -0.0640     5.0720 n8         1 P24      -0.995200
     10 HN11        -0.7670    -0.8170    -5.0980 hn         1 P24       0.393500
     11 HN12         0.4710    -0.0370    -5.7770 hn         1 P24       0.393500
     12 H21          1.1880     0.8880    -3.6820 h1         1 P24       0.033700
     13 H22          1.1300    -0.8910    -3.6790 h1         1 P24       0.033700
     14 H31         -1.1090    -0.8110    -2.5330 h1         1 P24       0.036700
     15 H32         -1.0500     0.9610    -2.5350 h1         1 P24       0.036700
     16 HN4          0.9390     0.8560    -1.1910 hn         1 P24       0.403000
     17 H51         -1.1590    -0.8400     0.0220 h1         1 P24       0.029200
     18 H52         -1.1150     0.9350     0.0480 h1         1 P24       0.029200
     19 H61          1.0850     0.8570     1.2490 hc         1 P24       0.043700
     20 H62          1.0430    -0.9080     1.2180 hc         1 P24       0.043700
     21 H71         -1.0600    -0.8810     2.5900 hc         1 P24       0.046200
     22 H72         -1.0180     0.8840     2.6200 hc         1 P24       0.046200
     23 H81          1.1810     0.8180     3.8380 h1         1 P24       0.026200
     24 H82          1.1380    -0.9650     3.8040 h1         1 P24       0.026200
     25 HN91         0.3640    -0.0320     5.8760 hn         1 P24       0.391000
     26 HN92        -0.7920     0.8210     5.1410 hn         1 P24       0.391000
@<TRIPOS>BOND
     1     1     2 1   
     2     1    10 1   
     3     1    11 1   
     4     2     3 1   
     5     2    12 1   
     6     2    13 1   
     7     3     4 1   
     8     3    14 1   
     9     3    15 1   
    10     4     5 1   
    11     4    16 1   
    12     5     6 1   
    13     5    17 1   
    14     5    18 1   
    15     6     7 1   
    16     6    19 1   
    17     6    20 1   
    18     7     8 1   
    19     7    21 1   
    20     7    22 1   
    21     8     9 1   
    22     8    23 1   
    23     8    24 1   
    24     9    25 1   
    25     9    26 1   
@<TRIPOS>SUBSTRUCTURE
     1 P24         1 TEMP              0 ****  ****    0 ROOT
