@<TRIPOS>MOLECULE
P26
   52    55     1     0     0
SMALL
No Charge or Current Charge


@<TRIPOS>ATOM
      1 O2           5.5990    -2.3080     1.1100 o          1 P26      -0.719500
      2 C22          5.2750    -1.7990     0.0460 c          1 P26       0.710600
      3 O1           5.8810    -2.0060    -0.9970 o          1 P26      -0.719500
      4 C19          4.0700    -0.8700     0.0170 ca         1 P26      -0.119600
      5 C18          3.3330    -0.5990     1.1930 ca         1 P26      -0.096500
      6 C17          2.2200     0.2590     1.1640 ca         1 P26      -0.116500
      7 C20          3.6530    -0.2570    -1.1860 ca         1 P26      -0.096500
      8 C21          2.5400     0.6010    -1.2110 ca         1 P26      -0.116500
      9 C16          1.8140     0.8820    -0.0350 ca         1 P26      -0.176300
     10 C13          0.5810     1.8100    -0.0680 c5         1 P26       0.483600
     11 O4           0.7510     2.8690    -1.0310 os         1 P26      -0.459500
     12 C15          1.6520     3.8210    -0.4230 c5         1 P26       0.126100
     13 C14          1.4450     3.6000     1.1040 c5         1 P26       0.126100
     14 O3           0.4540     2.5500     1.1630 os         1 P26      -0.459500
     15 C10         -0.7060     1.0240    -0.3520 ca         1 P26      -0.057300
     16 C9          -1.4320     0.4320     0.7060 ca         1 P26      -0.061000
     17 C8          -2.5970    -0.3080     0.4340 ca         1 P26      -0.088300
     18 C01         -3.4870    -0.9820     1.4550 c5         1 P26      -0.000700
     19 C2          -4.3420     0.0580     2.2240 c3         1 P26      -0.077100
     20 C1          -2.6870    -1.8070     2.4970 c3         1 P26      -0.077100
     21 C11         -1.1740     0.8470    -1.6770 ca         1 P26      -0.081000
     22 C12         -2.3450     0.1120    -1.9350 ca         1 P26      -0.109000
     23 C7          -3.0480    -0.4640    -0.8640 ca         1 P26      -0.079300
     24 C02         -4.3260    -1.2680    -0.9550 c5         1 P26      -0.002700
     25 C6          -5.5450    -0.3500    -1.2330 c3         1 P26      -0.075600
     26 C5          -4.2780    -2.3480    -2.0670 c3         1 P26      -0.075600
     27 C3          -4.3360    -1.9160     0.4930 c5         1 P26      -0.065400
     28 H18          3.6190    -1.0580     2.1370 ha         1 P26       0.127500
     29 H17          1.6700     0.4390     2.0850 ha         1 P26       0.095000
     30 H20          4.1910    -0.4460    -2.1130 ha         1 P26       0.127500
     31 H21          2.2420     1.0490    -2.1560 ha         1 P26       0.095000
     32 H15          2.6840     3.5980    -0.7270 h1         1 P26       0.050950
     33 H15A         1.3930     4.8380    -0.7470 h1         1 P26       0.050950
     34 H14          2.3690     3.2610     1.5920 h1         1 P26       0.050950
     35 H14A         1.0710     4.4940     1.6180 h1         1 P26       0.050950
     36 H9          -1.0920     0.5480     1.7320 ha         1 P26       0.127000
     37 H2          -4.8890     0.7220     1.5490 hc         1 P26       0.034200
     38 H2A         -5.0770    -0.4340     2.8730 hc         1 P26       0.034200
     39 H2B         -3.7140     0.6960     2.8580 hc         1 P26       0.034200
     40 H1          -2.0770    -1.1640     3.1420 hc         1 P26       0.034200
     41 H1A         -3.3590    -2.3840     3.1440 hc         1 P26       0.034200
     42 H1B         -2.0100    -2.5160     2.0050 hc         1 P26       0.034200
     43 H11         -0.6270     1.2810    -2.5100 ha         1 P26       0.124000
     44 H12         -2.7000    -0.0050    -2.9560 ha         1 P26       0.105000
     45 H6          -5.4860     0.0930    -2.2350 hc         1 P26       0.031533
     46 H6A         -6.4860    -0.9110    -1.1730 hc         1 P26       0.031533
     47 H6B         -5.6080     0.4790    -0.5220 hc         1 P26       0.031533
     48 H5          -3.3950    -2.9890    -1.9580 hc         1 P26       0.031533
     49 H5A         -5.1640    -2.9950    -2.0280 hc         1 P26       0.031533
     50 H5B         -4.2380    -1.9000    -3.0670 hc         1 P26       0.031533
     51 H3          -3.8780    -2.9110     0.4520 hc         1 P26       0.041700
     52 H3A         -5.3530    -2.0810     0.8670 hc         1 P26       0.041700
@<TRIPOS>BOND
     1     1     2 1   
     2     2     3 1   
     3     2     4 1   
     4     4     5 ar  
     5     4     7 ar  
     6     5     6 ar  
     7     5    28 1   
     8     6     9 ar  
     9     6    29 1   
    10     7     8 ar  
    11     7    30 1   
    12     8     9 ar  
    13     8    31 1   
    14     9    10 1   
    15    10    11 1   
    16    10    14 1   
    17    10    15 1   
    18    11    12 1   
    19    12    13 1   
    20    12    32 1   
    21    12    33 1   
    22    13    14 1   
    23    13    34 1   
    24    13    35 1   
    25    15    16 ar  
    26    15    21 ar  
    27    16    17 ar  
    28    16    36 1   
    29    17    18 1   
    30    17    23 ar  
    31    18    19 1   
    32    18    20 1   
    33    18    27 1   
    34    19    37 1   
    35    19    38 1   
    36    19    39 1   
    37    20    40 1   
    38    20    41 1   
    39    20    42 1   
    40    21    22 ar  
    41    21    43 1   
    42    22    23 ar  
    43    22    44 1   
    44    23    24 1   
    45    24    25 1   
    46    24    26 1   
    47    24    27 1   
    48    25    45 1   
    49    25    46 1   
    50    25    47 1   
    51    26    48 1   
    52    26    49 1   
    53    26    50 1   
    54    27    51 1   
    55    27    52 1   
@<TRIPOS>SUBSTRUCTURE
     1 P26         1 TEMP              0 ****  ****    0 ROOT
