@<TRIPOS>MOLECULE
P26
   52    55     1     0     0
SMALL
bcc


@<TRIPOS>ATOM
      1 O2           5.3100    -2.3840     1.2920 o          1 P26      -0.824800
      2 C22          4.9900    -1.9690     0.1610 c          1 P26       0.921200
      3 O1           5.5040    -2.2960    -0.9260 o          1 P26      -0.824800
      4 C19          3.8510    -0.9600     0.1010 ca         1 P26      -0.119600
      5 C18          3.1790    -0.5670     1.2550 ca         1 P26      -0.114500
      6 C17          2.1380     0.3490     1.2020 ca         1 P26      -0.134500
      7 C20          3.4510    -0.4020    -1.1110 ca         1 P26      -0.114500
      8 C21          2.4150     0.5170    -1.1700 ca         1 P26      -0.134500
      9 C16          1.7460     0.9040    -0.0120 ca         1 P26      -0.176300
     10 C13          0.5720     1.8770    -0.0890 c5         1 P26       0.437200
     11 O4           0.7910     2.8410    -1.0790 os         1 P26      -0.413100
     12 C15          1.5770     3.8640    -0.4890 c5         1 P26       0.102900
     13 C14          1.3990     3.6440     1.0240 c5         1 P26       0.102900
     14 O3           0.4370     2.6060     1.0980 os         1 P26      -0.413100
     15 C10         -0.7040     1.1180    -0.3680 ca         1 P26      -0.057300
     16 C9          -1.3650     0.4780     0.6780 ca         1 P26      -0.079000
     17 C8          -2.4980    -0.2740     0.4140 ca         1 P26      -0.088300
     18 C01         -3.3600    -1.0220     1.4050 c5         1 P26      -0.000700
     19 C2          -4.1990    -0.0330     2.2230 c3         1 P26      -0.077100
     20 C1          -2.5350    -1.8840     2.3590 c3         1 P26      -0.077100
     21 C11         -1.1900     0.9940    -1.6670 ca         1 P26      -0.099000
     22 C12         -2.3300     0.2420    -1.9260 ca         1 P26      -0.127000
     23 C7          -2.9810    -0.3960    -0.8820 ca         1 P26      -0.079300
     24 C02         -4.2310    -1.2440    -0.9370 c5         1 P26      -0.002700
     25 C6          -5.4600    -0.3590    -1.1700 c3         1 P26      -0.075600
     26 C5          -4.1660    -2.3060    -2.0330 c3         1 P26      -0.075600
     27 C3          -4.2340    -1.8910     0.4700 c5         1 P26      -0.065400
     28 H18          3.4740    -0.9810     2.2100 ha         1 P26       0.145500
     29 H17          1.6370     0.6340     2.1190 ha         1 P26       0.113000
     30 H20          3.9600    -0.6900    -2.0220 ha         1 P26       0.145500
     31 H21          2.1290     0.9330    -2.1280 ha         1 P26       0.113000
     32 H15          2.6270     3.7820    -0.7840 h1         1 P26       0.050950
     33 H15A         1.1950     4.8280    -0.8260 h1         1 P26       0.050950
     34 H14          2.3390     3.3490     1.4980 h1         1 P26       0.050950
     35 H14A         1.0070     4.5180     1.5430 h1         1 P26       0.050950
     36 H9          -0.9940     0.5610     1.6930 ha         1 P26       0.145000
     37 H2          -4.8030     0.6130     1.5850 hc         1 P26       0.034200
     38 H2A         -4.8750    -0.5660     2.8950 hc         1 P26       0.034200
     39 H2B         -3.5590     0.6090     2.8310 hc         1 P26       0.034200
     40 H1          -1.9090    -1.2730     3.0120 hc         1 P26       0.034200
     41 H1A         -3.1890    -2.4800     2.9990 hc         1 P26       0.034200
     42 H1B         -1.8830    -2.5690     1.8140 hc         1 P26       0.034200
     43 H11         -0.6820     1.4800    -2.4900 ha         1 P26       0.142000
     44 H12         -2.6920     0.1570    -2.9440 ha         1 P26       0.123000
     45 H6          -5.4070     0.1340    -2.1430 hc         1 P26       0.031533
     46 H6A         -6.3730    -0.9590    -1.1530 hc         1 P26       0.031533
     47 H6B         -5.5570     0.4190    -0.4120 hc         1 P26       0.031533
     48 H5          -3.2810    -2.9340    -1.9240 hc         1 P26       0.031533
     49 H5A         -5.0440    -2.9530    -1.9880 hc         1 P26       0.031533
     50 H5B         -4.1410    -1.8550    -3.0280 hc         1 P26       0.031533
     51 H3          -3.7890    -2.8880     0.3950 hc         1 P26       0.041700
     52 H3A         -5.2460    -2.0300     0.8580 hc         1 P26       0.041700
@<TRIPOS>BOND
     1     1     2 1   
     2     2     3 1   
     3     2     4 1   
     4     4     5 ar  
     5     4     7 ar  
     6     5     6 ar  
     7     5    28 1   
     8     6     9 ar  
     9     6    29 1   
    10     7     8 ar  
    11     7    30 1   
    12     8     9 ar  
    13     8    31 1   
    14     9    10 1   
    15    10    11 1   
    16    10    14 1   
    17    10    15 1   
    18    11    12 1   
    19    12    13 1   
    20    12    32 1   
    21    12    33 1   
    22    13    14 1   
    23    13    34 1   
    24    13    35 1   
    25    15    16 ar  
    26    15    21 ar  
    27    16    17 ar  
    28    16    36 1   
    29    17    18 1   
    30    17    23 ar  
    31    18    19 1   
    32    18    20 1   
    33    18    27 1   
    34    19    37 1   
    35    19    38 1   
    36    19    39 1   
    37    20    40 1   
    38    20    41 1   
    39    20    42 1   
    40    21    22 ar  
    41    21    43 1   
    42    22    23 ar  
    43    22    44 1   
    44    23    24 1   
    45    24    25 1   
    46    24    26 1   
    47    24    27 1   
    48    25    45 1   
    49    25    46 1   
    50    25    47 1   
    51    26    48 1   
    52    26    49 1   
    53    26    50 1   
    54    27    51 1   
    55    27    52 1   
@<TRIPOS>SUBSTRUCTURE
     1 P26         1 TEMP              0 ****  ****    0 ROOT
