@<TRIPOS>MOLECULE
P27
   65    69     1     0     0
SMALL
abcg2


@<TRIPOS>ATOM
      1 C32          0.4840    71.7450    69.1070 c3         1 P27      -0.010600
      2 C33          1.3600    72.7030    68.3380 ca         1 P27      -0.146300
      3 C4A          0.8830    73.2630    67.1540 ca         1 P27      -0.125250
      4 C4B          2.6720    73.0020    68.7020 ca         1 P27      -0.125250
      5 C5A          1.6570    74.1170    66.3870 ca         1 P27      -0.078750
      6 C5B          3.4550    73.8550    67.9340 ca         1 P27      -0.078750
      7 C36          2.9550    74.4380    66.7730 ca         1 P27      -0.041800
      8 C37          3.7750    75.3470    65.9100 c3         1 P27      -0.052200
      9 F38          4.8360    75.8250    66.6540 f          1 P27      -0.164000
     10 F39          3.0130    76.4750    65.6380 f          1 P27      -0.164000
     11 P40          4.4120    74.5780    64.2940 p5         1 P27       1.272000
     12 O41          3.1240    74.1460    63.5960 o          1 P27      -0.904833
     13 O42          5.2890    73.4440    64.8130 o          1 P27      -0.904833
     14 O43          5.1550    75.7250    63.6130 o          1 P27      -0.904833
     15 C1           0.0070    72.2320    70.4980 c3         1 P27       0.164300
     16 C12         -0.8380    73.5260    70.4020 c3         1 P27      -0.010600
     17 C13         -2.1260    73.3960    69.6330 ca         1 P27      -0.146300
     18 C1A         -2.2460    73.9340    68.3560 ca         1 P27      -0.125250
     19 C1B         -3.2500    72.7750    70.1750 ca         1 P27      -0.125250
     20 C2A         -3.4160    73.8090    67.6220 ca         1 P27      -0.078750
     21 C2B         -4.4210    72.6450    69.4470 ca         1 P27      -0.078750
     22 C16         -4.5140    73.1380    68.1480 ca         1 P27      -0.041800
     23 C17         -5.7900    73.0210    67.3780 c3         1 P27      -0.052200
     24 F18         -6.3700    71.8010    67.6850 f          1 P27      -0.164000
     25 F19         -5.4820    72.9190    66.0310 f          1 P27      -0.164000
     26 P20         -7.0140    74.4430    67.6810 p5         1 P27       1.272000
     27 O21         -6.1880    75.6680    67.2980 o          1 P27      -0.904833
     28 O22         -7.3110    74.2940    69.1710 o          1 P27      -0.904833
     29 O23         -8.1850    74.1320    66.7520 o          1 P27      -0.904833
     30 C51          1.2100    72.3960    71.4210 ca         1 P27      -0.053300
     31 C6A          1.8950    71.2450    71.8130 ca         1 P27      -0.110000
     32 C6B          1.6730    73.6300    71.8530 ca         1 P27      -0.068000
     33 C55          3.4620    72.5810    73.0420 ca         1 P27       0.112000
     34 C53          3.0080    71.3430    72.6130 ca         1 P27       0.116000
     35 C54          2.7990    73.7250    72.6650 ca         1 P27      -0.134000
     36 F56          3.6670    70.2420    72.9860 f          1 P27      -0.183000
     37 F57          4.5430    72.6420    73.8240 f          1 P27      -0.187000
     38 N61         -0.8290    71.1780    71.0930 na         1 P27       0.086600
     39 N62         -1.3100    70.1640    70.3770 nc         1 P27      -0.113400
     40 N63         -2.0670    69.4340    71.0970 nd         1 P27      -0.250400
     41 C7A         -2.1170    69.9740    72.3500 ca         1 P27       0.013400
     42 C7B         -1.3120    71.1150    72.3640 ca         1 P27      -0.073200
     43 C8A         -2.8200    69.5690    73.4890 ca         1 P27      -0.036000
     44 C8B         -1.1720    71.9060    73.5090 ca         1 P27      -0.083000
     45 C9A         -2.6870    70.3450    74.6170 ca         1 P27      -0.156000
     46 C9B         -1.8730    71.4980    74.6210 ca         1 P27      -0.110000
     47 H321         1.0130    70.7980    69.2400 hc         1 P27       0.054700
     48 H322        -0.3910    71.5170    68.4980 hc         1 P27       0.054700
     49 H4A         -0.1110    73.0100    66.8090 ha         1 P27       0.087000
     50 H4B          3.1110    72.5540    69.5840 ha         1 P27       0.087000
     51 H5A          1.2480    74.5170    65.4710 ha         1 P27       0.132000
     52 H5B          4.4680    74.0550    68.2580 ha         1 P27       0.132000
     53 H121        -0.2230    74.2960    69.9340 hc         1 P27       0.054700
     54 H122        -1.0530    73.8780    71.4140 hc         1 P27       0.054700
     55 H1A         -1.4120    74.4750    67.9270 ha         1 P27       0.087000
     56 H1B         -3.2340    72.4040    71.1920 ha         1 P27       0.087000
     57 H2A         -3.4570    74.2400    66.6310 ha         1 P27       0.132000
     58 H2B         -5.2670    72.1530    69.9060 ha         1 P27       0.132000
     59 H6A          1.5710    70.2600    71.4990 ha         1 P27       0.141000
     60 H6B          1.1770    74.5460    71.5680 ha         1 P27       0.142000
     61 H54          3.1550    74.6900    73.0020 ha         1 P27       0.123000
     62 H8A         -3.4450    68.6860    73.4760 ha         1 P27       0.115000
     63 H8B         -0.5550    72.7930    73.5340 ha         1 P27       0.124000
     64 H9A         -3.2160    70.0740    75.5200 ha         1 P27       0.090000
     65 H9B         -1.8000    72.0810    75.5300 ha         1 P27       0.093000
@<TRIPOS>BOND
     1     1     2 1   
     2     1    15 1   
     3     1    47 1   
     4     1    48 1   
     5     2     3 ar  
     6     2     4 ar  
     7     3     5 ar  
     8     3    49 1   
     9     4     6 ar  
    10     4    50 1   
    11     5     7 ar  
    12     5    51 1   
    13     6     7 ar  
    14     6    52 1   
    15     7     8 1   
    16     8     9 1   
    17     8    10 1   
    18     8    11 1   
    19    11    12 1   
    20    11    13 1   
    21    11    14 1   
    22    15    16 1   
    23    15    30 1   
    24    15    38 1   
    25    16    17 1   
    26    16    53 1   
    27    16    54 1   
    28    17    18 ar  
    29    17    19 ar  
    30    18    20 ar  
    31    18    55 1   
    32    19    21 ar  
    33    19    56 1   
    34    20    22 ar  
    35    20    57 1   
    36    21    22 ar  
    37    21    58 1   
    38    22    23 1   
    39    23    24 1   
    40    23    25 1   
    41    23    26 1   
    42    26    27 1   
    43    26    28 1   
    44    26    29 1   
    45    30    31 ar  
    46    30    32 ar  
    47    31    34 ar  
    48    31    59 1   
    49    32    35 ar  
    50    32    60 1   
    51    33    34 ar  
    52    33    35 ar  
    53    33    37 1   
    54    34    36 1   
    55    35    61 1   
    56    38    39 1   
    57    38    42 1   
    58    39    40 2   
    59    40    41 1   
    60    41    42 ar  
    61    41    43 ar  
    62    42    44 ar  
    63    43    45 ar  
    64    43    62 1   
    65    44    46 ar  
    66    44    63 1   
    67    45    46 ar  
    68    45    64 1   
    69    46    65 1   
@<TRIPOS>SUBSTRUCTURE
     1 P27         1 TEMP              0 ****  ****    0 ROOT
