@<TRIPOS>MOLECULE
P27
   65    69     1     0     0
SMALL
No Charge or Current Charge


@<TRIPOS>ATOM
      1 C32          0.4210    71.8510    68.7510 c3         1 P27      -0.010600
      2 C33          1.5190    72.7520    68.1680 ca         1 P27      -0.146300
      3 C4A          1.2030    73.8490    67.3430 ca         1 P27      -0.125250
      4 C4B          2.8740    72.4740    68.4350 ca         1 P27      -0.125250
      5 C5A          2.2190    74.6690    66.8230 ca         1 P27      -0.078750
      6 C5B          3.8900    73.2950    67.9170 ca         1 P27      -0.078750
      7 C36          3.5750    74.4090    67.1120 ca         1 P27      -0.041800
      8 C37          4.6860    75.3110    66.5540 c3         1 P27      -0.052200
      9 F38          5.7310    75.3820    67.4200 f          1 P27      -0.164000
     10 F39          4.2480    76.5910    66.4180 f          1 P27      -0.164000
     11 P40          5.3430    74.7230    64.8710 p5         1 P27       1.272000
     12 O41          4.2320    74.7060    63.8700 o          1 P27      -0.904833
     13 O42          5.9120    73.3470    65.0000 o          1 P27      -0.904833
     14 O43          6.4140    75.6510    64.3940 o          1 P27      -0.904833
     15 C1          -0.1210    72.2740    70.1650 c3         1 P27       0.164300
     16 C12         -1.0300    73.5540    70.0490 c3         1 P27      -0.010600
     17 C13         -2.4580    73.3140    69.5370 ca         1 P27      -0.146300
     18 C1A         -2.7480    73.2890    68.1600 ca         1 P27      -0.125250
     19 C1B         -3.5140    73.1390    70.4540 ca         1 P27      -0.125250
     20 C2A         -4.0600    73.0650    67.7080 ca         1 P27      -0.078750
     21 C2B         -4.8250    72.9130    70.0030 ca         1 P27      -0.078750
     22 C16         -5.1140    72.8650    68.6240 ca         1 P27      -0.041800
     23 C17         -6.5460    72.6100    68.1310 c3         1 P27      -0.052200
     24 F18         -7.2130    71.7900    68.9870 f          1 P27      -0.164000
     25 F19         -6.5400    71.9520    66.9400 f          1 P27      -0.164000
     26 P20         -7.5540    74.2070    67.9260 p5         1 P27       1.272000
     27 O21         -6.8900    75.1030    66.9300 o          1 P27      -0.904833
     28 O22         -7.6560    74.9160    69.2380 o          1 P27      -0.904833
     29 O23         -8.9310    73.8770    67.4420 o          1 P27      -0.904833
     30 C51          1.1280    72.5220    71.0590 ca         1 P27      -0.053300
     31 C6A          1.8060    71.4210    71.6430 ca         1 P27      -0.110000
     32 C6B          1.6600    73.8210    71.2740 ca         1 P27      -0.068000
     33 C55          3.4460    72.9100    72.6530 ca         1 P27       0.112000
     34 C53          2.9470    71.6150    72.4360 ca         1 P27       0.116000
     35 C54          2.8050    74.0110    72.0680 ca         1 P27      -0.134000
     36 F56          3.5670    70.5440    72.9840 f          1 P27      -0.183000
     37 F57          4.5480    73.1050    73.4130 f          1 P27      -0.187000
     38 N61         -0.9520    71.1750    70.7570 na         1 P27       0.086600
     39 N62         -1.4460    70.0780    70.0550 nc         1 P27      -0.113400
     40 N63         -2.1610    69.3270    70.8920 nd         1 P27      -0.250400
     41 C7A         -2.1310    69.9570    72.1250 ca         1 P27       0.013400
     42 C7B         -1.3920    71.0960    72.0560 ca         1 P27      -0.073200
     43 C8A         -2.7440    69.5590    73.3220 ca         1 P27      -0.036000
     44 C8B         -1.2010    71.9370    73.1660 ca         1 P27      -0.083000
     45 C9A         -2.5740    70.3750    74.4620 ca         1 P27      -0.156000
     46 C9B         -1.8060    71.5600    74.3830 ca         1 P27      -0.110000
     47 H321         0.8320    70.8360    68.8270 hc         1 P27       0.054700
     48 H322        -0.4100    71.7670    68.0420 hc         1 P27       0.054700
     49 H4A          0.1700    74.0740    67.1010 ha         1 P27       0.087000
     50 H4B          3.1450    71.6220    69.0530 ha         1 P27       0.087000
     51 H5A          1.9470    75.5100    66.1900 ha         1 P27       0.132000
     52 H5B          4.9280    73.0590    68.1430 ha         1 P27       0.132000
     53 H121        -0.5420    74.3040    69.4170 hc         1 P27       0.054700
     54 H122        -1.1020    74.0190    71.0390 hc         1 P27       0.054700
     55 H1A         -1.9600    73.4440    67.4290 ha         1 P27       0.087000
     56 H1B         -3.3210    73.1720    71.5230 ha         1 P27       0.087000
     57 H2A         -4.2550    73.0510    66.6380 ha         1 P27       0.132000
     58 H2B         -5.6200    72.7780    70.7330 ha         1 P27       0.132000
     59 H6A          1.4570    70.4050    71.4820 ha         1 P27       0.141000
     60 H6B          1.2080    74.6970    70.8180 ha         1 P27       0.142000
     61 H54          3.1990    75.0120    72.2240 ha         1 P27       0.123000
     62 H8A         -3.3340    68.6470    73.3690 ha         1 P27       0.115000
     63 H8B         -0.6120    72.8480    73.1030 ha         1 P27       0.124000
     64 H9A         -3.0380    70.0910    75.4030 ha         1 P27       0.090000
     65 H9B         -1.6810    72.1850    75.2650 ha         1 P27       0.093000
@<TRIPOS>BOND
     1     1     2 1   
     2     1    15 1   
     3     1    47 1   
     4     1    48 1   
     5     2     3 ar  
     6     2     4 ar  
     7     3     5 ar  
     8     3    49 1   
     9     4     6 ar  
    10     4    50 1   
    11     5     7 ar  
    12     5    51 1   
    13     6     7 ar  
    14     6    52 1   
    15     7     8 1   
    16     8     9 1   
    17     8    10 1   
    18     8    11 1   
    19    11    12 1   
    20    11    13 1   
    21    11    14 1   
    22    15    16 1   
    23    15    30 1   
    24    15    38 1   
    25    16    17 1   
    26    16    53 1   
    27    16    54 1   
    28    17    18 ar  
    29    17    19 ar  
    30    18    20 ar  
    31    18    55 1   
    32    19    21 ar  
    33    19    56 1   
    34    20    22 ar  
    35    20    57 1   
    36    21    22 ar  
    37    21    58 1   
    38    22    23 1   
    39    23    24 1   
    40    23    25 1   
    41    23    26 1   
    42    26    27 1   
    43    26    28 1   
    44    26    29 1   
    45    30    31 ar  
    46    30    32 ar  
    47    31    34 ar  
    48    31    59 1   
    49    32    35 ar  
    50    32    60 1   
    51    33    34 ar  
    52    33    35 ar  
    53    33    37 1   
    54    34    36 1   
    55    35    61 1   
    56    38    39 1   
    57    38    42 1   
    58    39    40 2   
    59    40    41 1   
    60    41    42 ar  
    61    41    43 ar  
    62    42    44 ar  
    63    43    45 ar  
    64    43    62 1   
    65    44    46 ar  
    66    44    63 1   
    67    45    46 ar  
    68    45    64 1   
    69    46    65 1   
@<TRIPOS>SUBSTRUCTURE
     1 P27         1 TEMP              0 ****  ****    0 ROOT
