@<TRIPOS>MOLECULE
P28
   43    44     1     0     0
SMALL
No Charge or Current Charge


@<TRIPOS>ATOM
      1 C1           2.8330    -0.9630     2.2570 ca         1 P28      -0.025300
      2 C2           3.2160    -1.7050     3.3910 ca         1 P28      -0.095000
      3 C3           4.5760    -1.8510     3.7170 ca         1 P28      -0.111500
      4 C4           5.5600    -1.2620     2.9070 ca         1 P28       0.038100
      5 C5           5.1830    -0.5010     1.7840 ca         1 P28      -0.111500
      6 C6           3.8230    -0.3550     1.4600 ca         1 P28      -0.095000
      7 C7           1.3600    -0.8320     1.8870 c3         1 P28      -0.047100
      8 C8           0.8070    -2.0700     1.1360 c3         1 P28      -0.038300
      9 C9          -0.6930    -1.8770     0.7570 c          1 P28       0.718000
     10 O9          -1.5300    -2.5260     1.3670 o          1 P28      -0.718000
     11 O10         -0.9660    -1.1520    -0.1920 o          1 P28      -0.718000
     12 N8           1.6170    -2.3920    -0.0670 ns         1 P28      -0.467900
     13 C81          2.6340    -3.3190    -0.1230 c          1 P28       0.591100
     14 C82          3.3630    -3.3820    -1.4610 c3         1 P28      -0.178100
     15 O81          2.9280    -4.0430     0.8180 o          1 P28      -0.655100
     16 O41          6.8860    -1.4290     3.2340 os         1 P28      -0.243200
     17 C10          7.8590    -1.6830     2.2910 ca         1 P28       0.095100
     18 C11          7.5930    -2.4860     1.1670 ca         1 P28      -0.029000
     19 C12          8.6040    -2.7510     0.2060 ca         1 P28      -0.251700
     20 N3           8.2600    -3.6140    -0.9750 no         1 P28       0.702200
     21 O31          9.1450    -3.8620    -1.8040 o          1 P28      -0.389250
     22 O32          7.1010    -4.0320    -1.0750 o          1 P28      -0.389250
     23 C13          9.8990    -2.1960     0.4010 ca         1 P28       0.251100
     24 O4          10.9220    -2.4470    -0.4670 oh         1 P28      -0.501100
     25 C14         10.1570    -1.3940     1.5330 ca         1 P28      -0.251700
     26 N5          11.4990    -0.8010     1.7570 no         1 P28       0.702200
     27 O51         11.9700    -0.0870     0.8630 o          1 P28      -0.389250
     28 O52         11.9500    -0.8420     2.9090 o          1 P28      -0.389250
     29 C15          9.1390    -1.1510     2.4810 ca         1 P28      -0.029000
     30 H2           2.4600    -2.1780     4.0140 ha         1 P28       0.121500
     31 H3           4.8670    -2.4310     4.5890 ha         1 P28       0.114500
     32 H5           5.9380    -0.0260     1.1620 ha         1 P28       0.114500
     33 H6           3.5400     0.2230     0.5840 ha         1 P28       0.121500
     34 H71          1.2080     0.0600     1.2670 hc         1 P28       0.060200
     35 H72          0.7620    -0.6720     2.7930 hc         1 P28       0.060200
     36 H8           0.8490    -2.9280     1.8180 h1         1 P28       0.067700
     37 HN8          1.4320    -1.8710    -0.9170 hn         1 P28       0.329500
     38 H821         3.7690    -2.3900    -1.6910 hc         1 P28       0.046367
     39 H822         4.1440    -4.1500    -1.4830 hc         1 P28       0.046367
     40 H823         2.6310    -3.5260    -2.2640 hc         1 P28       0.046367
     41 H1           6.5950    -2.9070     1.0550 ha         1 P28       0.183000
     42 HO4         10.5710    -3.0170    -1.1890 ho         1 P28       0.528000
     43 H4           9.3320    -0.5370     3.3600 ha         1 P28       0.183000
@<TRIPOS>BOND
     1     1     2 ar  
     2     1     6 ar  
     3     1     7 1   
     4     2     3 ar  
     5     2    30 1   
     6     3     4 ar  
     7     3    31 1   
     8     4     5 ar  
     9     4    16 1   
    10     5     6 ar  
    11     5    32 1   
    12     6    33 1   
    13     7     8 1   
    14     7    34 1   
    15     7    35 1   
    16     8     9 1   
    17     8    12 1   
    18     8    36 1   
    19     9    10 1   
    20     9    11 1   
    21    12    13 1   
    22    12    37 1   
    23    13    14 1   
    24    13    15 2   
    25    14    38 1   
    26    14    39 1   
    27    14    40 1   
    28    16    17 1   
    29    17    18 ar  
    30    17    29 ar  
    31    18    19 ar  
    32    18    41 1   
    33    19    20 1   
    34    19    23 ar  
    35    20    21 1   
    36    20    22 1   
    37    23    24 1   
    38    23    25 ar  
    39    24    42 1   
    40    25    26 1   
    41    25    29 ar  
    42    26    27 1   
    43    26    28 1   
    44    29    43 1   
@<TRIPOS>SUBSTRUCTURE
     1 P28         1 TEMP              0 ****  ****    0 ROOT
