@<TRIPOS>MOLECULE
P28
   43    44     1     0     0
SMALL
abcg2


@<TRIPOS>ATOM
      1 C1           2.7380    -1.0620     2.3640 ca         1 P28      -0.025300
      2 C2           3.4160    -1.7640     3.3540 ca         1 P28      -0.095000
      3 C3           4.7840    -1.6210     3.5290 ca         1 P28      -0.111500
      4 C4           5.4800    -0.7600     2.6980 ca         1 P28       0.038100
      5 C5           4.8300    -0.0270     1.7190 ca         1 P28      -0.111500
      6 C6           3.4600    -0.1790     1.5650 ca         1 P28      -0.095000
      7 C7           1.2890    -1.3220     2.0900 c3         1 P28      -0.047100
      8 C8           1.1010    -2.4780     1.0800 c3         1 P28      -0.038300
      9 C9          -0.4010    -2.5890     0.7240 c          1 P28       0.718000
     10 O9          -1.1410    -2.9490     1.6560 o          1 P28      -0.718000
     11 O10         -0.7380    -2.2770    -0.4340 o          1 P28      -0.718000
     12 N8           1.8990    -2.2800    -0.1020 ns         1 P28      -0.467900
     13 C81          3.1380    -2.7640    -0.2790 c          1 P28       0.591100
     14 C82          3.7990    -2.3720    -1.5790 c3         1 P28      -0.178100
     15 O81          3.7200    -3.4530     0.5510 o          1 P28      -0.655100
     16 O41          6.8390    -0.6030     2.8770 os         1 P28      -0.243200
     17 C10          7.6860    -1.2840     2.0730 ca         1 P28       0.095100
     18 C11          7.3080    -2.2720     1.1870 ca         1 P28      -0.029000
     19 C12          8.2820    -2.9190     0.4250 ca         1 P28      -0.251700
     20 N3           7.8380    -3.9640    -0.4670 no         1 P28       0.702200
     21 O31          8.6860    -4.5660    -1.1140 o          1 P28      -0.389250
     22 O32          6.6660    -4.2050    -0.5450 o          1 P28      -0.389250
     23 C13          9.6500    -2.5990     0.5000 ca         1 P28       0.251100
     24 O4          10.6100    -3.2010    -0.1690 oh         1 P28      -0.501100
     25 C14          9.9730    -1.5770     1.4090 ca         1 P28      -0.251700
     26 N5          11.3540    -1.1490     1.5620 no         1 P28       0.702200
     27 O51         12.0450    -1.0990     0.5760 o          1 P28      -0.389250
     28 O52         11.7170    -0.8430     2.6720 o          1 P28      -0.389250
     29 C15          9.0310    -0.9480     2.1900 ca         1 P28      -0.029000
     30 H2           2.8720    -2.4480     3.9940 ha         1 P28       0.121500
     31 H3           5.3040    -2.1710     4.3030 ha         1 P28       0.114500
     32 H5           5.3840     0.6560     1.0880 ha         1 P28       0.114500
     33 H6           2.9500     0.3950     0.8010 ha         1 P28       0.121500
     34 H71          0.8190    -0.4190     1.6890 hc         1 P28       0.060200
     35 H72          0.7610    -1.5830     3.0080 hc         1 P28       0.060200
     36 H8           1.4250    -3.4050     1.5570 h1         1 P28       0.067700
     37 HN8          1.4460    -1.7890    -0.8570 hn         1 P28       0.329500
     38 H821         4.6110    -1.6770    -1.3620 hc         1 P28       0.046367
     39 H822         4.2400    -3.2470    -2.0520 hc         1 P28       0.046367
     40 H823         3.1220    -1.8920    -2.2830 hc         1 P28       0.046367
     41 H1           6.2690    -2.5630     1.0780 ha         1 P28       0.183000
     42 HO4         10.2060    -3.9140    -0.7050 ho         1 P28       0.528000
     43 H4           9.3260    -0.1720     2.8850 ha         1 P28       0.183000
@<TRIPOS>BOND
     1     1     2 ar  
     2     1     6 ar  
     3     1     7 1   
     4     2     3 ar  
     5     2    30 1   
     6     3     4 ar  
     7     3    31 1   
     8     4     5 ar  
     9     4    16 1   
    10     5     6 ar  
    11     5    32 1   
    12     6    33 1   
    13     7     8 1   
    14     7    34 1   
    15     7    35 1   
    16     8     9 1   
    17     8    12 1   
    18     8    36 1   
    19     9    10 1   
    20     9    11 1   
    21    12    13 1   
    22    12    37 1   
    23    13    14 1   
    24    13    15 2   
    25    14    38 1   
    26    14    39 1   
    27    14    40 1   
    28    16    17 1   
    29    17    18 ar  
    30    17    29 ar  
    31    18    19 ar  
    32    18    41 1   
    33    19    20 1   
    34    19    23 ar  
    35    20    21 1   
    36    20    22 1   
    37    23    24 1   
    38    23    25 ar  
    39    24    42 1   
    40    25    26 1   
    41    25    29 ar  
    42    26    27 1   
    43    26    28 1   
    44    29    43 1   
@<TRIPOS>SUBSTRUCTURE
     1 P28         1 TEMP              0 ****  ****    0 ROOT
