@<TRIPOS>MOLECULE
P28
   43    44     1     0     0
SMALL
bcc


@<TRIPOS>ATOM
      1 H1           2.7380    -1.0620     2.3640 ca         1 P28      -0.018000
      2 H2           3.4160    -1.7640     3.3540 ca         1 P28      -0.113000
      3 H3           4.7840    -1.6210     3.5290 ca         1 P28      -0.129500
      4 H4           5.4800    -0.7600     2.6980 ca         1 P28      -0.007000
      5 H5           4.8300    -0.0270     1.7190 ca         1 P28      -0.129500
      6 H6           3.4600    -0.1790     1.5650 ca         1 P28      -0.113000
      7 H7           1.2890    -1.3220     2.0900 c3         1 P28      -0.133000
      8 H8           1.1010    -2.4780     1.0800 c3         1 P28      -0.065000
      9 H9          -0.4010    -2.5890     0.7240 c          1 P28       0.348000
     10 H9          -1.1410    -2.9490     1.6560 o          1 P28      -0.558000
     11 H10         -0.7380    -2.2770    -0.4340 o          1 P28      -0.558000
     12 H8           1.8990    -2.2800    -0.1020 n7         1 P28      -0.344000
     13 H81          3.1380    -2.7640    -0.2790 c          1 P28       0.302000
     14 H82          3.7990    -2.3720    -1.5790 c3         1 P28      -0.246000
     15 H81          3.7200    -3.4530     0.5510 o          1 P28      -0.416000
     16 H41          6.8390    -0.6030     2.8770 os         1 P28      -0.153000
     17 H10          7.6860    -1.2840     2.0730 ca         1 P28       0.050000
     18 H11          7.3080    -2.2720     1.1870 ca         1 P28      -0.047000
     19 H12          8.2820    -2.9190     0.4250 ca         1 P28      -0.206500
     20 H3           7.8380    -3.9640    -0.4670 nh         1 P28       0.577000
     21 H31          8.6860    -4.5660    -1.1140 o          1 P28      -0.349250
     22 H32          6.6660    -4.2050    -0.5450 o          1 P28      -0.349250
     23 H13          9.6500    -2.5990     0.5000 ca         1 P28       0.206000
     24 H4          10.6100    -3.2010    -0.1690 oh         1 P28      -0.216000
     25 H14          9.9730    -1.5770     1.4090 ca         1 P28      -0.206500
     26 H5          11.3540    -1.1490     1.5620 nh         1 P28       0.577000
     27 H51         12.0450    -1.0990     0.5760 o          1 P28      -0.349250
     28 H52         11.7170    -0.8430     2.6720 o          1 P28      -0.349250
     29 H15          9.0310    -0.9480     2.1900 ca         1 P28      -0.047000
     30 H2           2.8720    -2.4480     3.9940 ha         1 P28       0.139500
     31 H3           5.3040    -2.1710     4.3030 ha         1 P28       0.132500
     32 H5           5.3840     0.6560     1.0880 ha         1 P28       0.132500
     33 H6           2.9500     0.3950     0.8010 ha         1 P28       0.139500
     34 H71          0.8190    -0.4190     1.6890 ha         1 P28       0.099500
     35 H72          0.7610    -1.5830     3.0080 ha         1 P28       0.099500
     36 H8           1.4250    -3.4050     1.5570 ha         1 P28       0.107000
     37 HN8          1.4460    -1.7890    -0.8570 ha         1 P28       0.243000
     38 H821         4.6110    -1.6770    -1.3620 ha         1 P28       0.085667
     39 H822         4.2400    -3.2470    -2.0520 ha         1 P28       0.085667
     40 H823         3.1220    -1.8920    -2.2830 ha         1 P28       0.085667
     41 H1           6.2690    -2.5630     1.0780 ha         1 P28       0.201000
     42 HO4         10.2060    -3.9140    -0.7050 ha         1 P28       0.288000
     43 H4           9.3260    -0.1720     2.8850 ha         1 P28       0.201000
@<TRIPOS>BOND
     1     1     2 ar  
     2     1     6 ar  
     3     1     7 1   
     4     2     3 ar  
     5     2    30 1   
     6     3     4 ar  
     7     3    31 1   
     8     4     5 ar  
     9     4    16 1   
    10     5     6 ar  
    11     5    32 1   
    12     6    33 1   
    13     7     8 1   
    14     7    34 1   
    15     7    35 1   
    16     8     9 1   
    17     8    12 1   
    18     8    36 1   
    19     9    10 1   
    20     9    11 1   
    21    12    13 1   
    22    12    37 1   
    23    13    14 1   
    24    13    15 2   
    25    14    38 1   
    26    14    39 1   
    27    14    40 1   
    28    16    17 1   
    29    17    18 ar  
    30    17    29 ar  
    31    18    19 ar  
    32    18    41 1   
    33    19    20 1   
    34    19    23 ar  
    35    20    21 1   
    36    20    22 1   
    37    23    24 1   
    38    23    25 ar  
    39    24    42 1   
    40    25    26 1   
    41    25    29 ar  
    42    26    27 1   
    43    26    28 1   
    44    29    43 1   
@<TRIPOS>SUBSTRUCTURE
     1 P28         1 TEMP              0 ****  ****    0 ROOT
