@<TRIPOS>MOLECULE
P29
   41    44     1     0     0
SMALL
bcc


@<TRIPOS>ATOM
      1 N01          0.1120    -3.4040    -0.1710 nc         1 P29      -0.600100
      2 C02         -1.0310    -4.0380    -0.2040 cd         1 P29       0.460500
      3 C03         -2.1390    -3.1570    -0.1750 cd         1 P29      -0.251300
      4 C04         -1.5810    -1.8800    -0.1200 cc         1 P29       0.515500
      5 N05         -0.2340    -2.1000    -0.1190 na         1 P29      -0.167600
      6 N06         -2.0990    -0.6590    -0.0730 nc         1 P29      -0.788000
      7 C07         -1.2060     0.3150    -0.0290 cd         1 P29       0.980900
      8 N08          0.1380     0.1700    -0.0280 nd         1 P29      -0.893000
      9 C09          0.6290    -1.0410    -0.0730 cc         1 P29       0.880400
     10 N10          1.9240    -1.2910    -0.0740 nu         1 P29      -0.861900
     11 C11          2.9250    -0.2410    -0.0590 c3         1 P29       0.233800
     12 C12          4.3170    -0.8630     0.0140 c3         1 P29      -0.019100
     13 C13          5.3850     0.1710     0.0150 cc         1 P29      -0.233900
     14 N14          5.6640     0.9750     1.0860 na         1 P29      -0.300900
     15 C15          6.6630     1.8080     0.7310 cc         1 P29       0.399400
     16 N16          7.0470     1.5970    -0.5010 nd         1 P29      -0.668000
     17 C17          6.2560     0.5790    -0.9570 cd         1 P29       0.316200
     18 N18         -1.6020     1.6030     0.0210 nu         1 P29      -0.715300
     19 C19         -2.8720     2.1830     0.0330 ca         1 P29       0.160600
     20 C20         -2.9070     3.5790     0.1130 ca         1 P29      -0.159500
     21 C21         -4.1130     4.2560     0.1290 ca         1 P29      -0.103000
     22 C22         -5.3130     3.5580     0.0650 ca         1 P29      -0.148000
     23 C23         -5.2790     2.1750    -0.0150 ca         1 P29      -0.103000
     24 C24         -4.0760     1.4790    -0.0320 ca         1 P29      -0.159500
     25 C25         -3.5070    -3.4670    -0.1980 ch         1 P29       0.256500
     26 N26         -4.6340    -3.7210    -0.2130 n1         1 P29      -0.389800
     27 H02         -1.0610    -5.1150    -0.2480 h4         1 P29       0.057800
     28 HN10         2.2200    -2.2550    -0.1410 hn         1 P29       0.479800
     29 H111         2.8380     0.3730    -0.9580 h1         1 P29       0.064700
     30 H112         2.7530     0.4120     0.7990 h1         1 P29       0.064700
     31 H121         4.3900    -1.4920     0.9050 hc         1 P29       0.062700
     32 H122         4.4690    -1.5150    -0.8480 hc         1 P29       0.062700
     33 HN14         5.2190     0.9440     1.9900 hn         1 P29       0.301700
     34 H15          7.0700     2.5420     1.4090 h5         1 P29       0.058100
     35 H17          6.3480     0.1870    -1.9580 h4         1 P29       0.040100
     36 HN18        -0.8330     2.2560     0.0560 hn         1 P29       0.456800
     37 H20         -1.9800     4.1380     0.1650 ha         1 P29       0.151500
     38 H21         -4.1120     5.3370     0.1910 ha         1 P29       0.134500
     39 H22         -6.2570     4.0870     0.0770 ha         1 P29       0.135000
     40 H23         -6.2020     1.6130    -0.0680 ha         1 P29       0.134500
     41 H24         -4.0810     0.4040    -0.0940 ha         1 P29       0.151500
@<TRIPOS>BOND
     1     1     2 2   
     2     1     5 1   
     3     2     3 1   
     4     2    27 1   
     5     3     4 2   
     6     3    25 1   
     7     4     5 1   
     8     4     6 1   
     9     5     9 1   
    10     6     7 2   
    11     7     8 1   
    12     7    18 1   
    13     8     9 2   
    14     9    10 1   
    15    10    11 1   
    16    10    28 1   
    17    11    12 1   
    18    11    29 1   
    19    11    30 1   
    20    12    13 1   
    21    12    31 1   
    22    12    32 1   
    23    13    14 1   
    24    13    17 2   
    25    14    15 1   
    26    14    33 1   
    27    15    16 2   
    28    15    34 1   
    29    16    17 1   
    30    17    35 1   
    31    18    19 1   
    32    18    36 1   
    33    19    20 ar  
    34    19    24 ar  
    35    20    21 ar  
    36    20    37 1   
    37    21    22 ar  
    38    21    38 1   
    39    22    23 ar  
    40    22    39 1   
    41    23    24 ar  
    42    23    40 1   
    43    24    41 1   
    44    25    26 3   
@<TRIPOS>SUBSTRUCTURE
     1 P29         1 TEMP              0 ****  ****    0 ROOT
