@<TRIPOS>MOLECULE
P29
   41    44     1     0     0
SMALL
No Charge or Current Charge


@<TRIPOS>ATOM
      1 N01          0.1640    -3.4710    -0.0340 nc         1 P29      -0.600100
      2 C02         -1.0280    -4.0690     0.0460 cd         1 P29       0.460500
      3 C03         -2.1230    -3.1570     0.1000 cd         1 P29      -0.251300
      4 C04         -1.5670    -1.9130     0.0460 cc         1 P29       0.252500
      5 N05         -0.2380    -2.1460    -0.0350 na         1 P29      -0.167600
      6 N06         -2.1830    -0.7100     0.0710 nc         1 P29      -0.262000
      7 C07         -1.3180     0.2960    -0.0050 cd         1 P29       0.454900
      8 N08          0.0700     0.2010    -0.0640 nd         1 P29      -0.367000
      9 C09          0.5900    -1.0270    -0.0860 cc         1 P29       0.617400
     10 N10          1.9410    -1.2190    -0.1510 nu         1 P29      -0.917100
     11 C11          2.9910    -0.1940    -0.0380 c3         1 P29       0.233800
     12 C12          4.3940    -0.8180    -0.1800 c3         1 P29      -0.019100
     13 C13          5.5010     0.2010    -0.0820 cc         1 P29      -0.219300
     14 N14          6.0130     0.7090     1.0940 na         1 P29      -0.300500
     15 C15          7.0050     1.6040     0.7730 cc         1 P29       0.399400
     16 N16          7.1470     1.6840    -0.5430 nd         1 P29      -0.668000
     17 C17          6.2180     0.8140    -1.0800 cd         1 P29       0.250900
     18 N18         -1.7490     1.5870     0.0360 nu         1 P29      -0.908900
     19 C19         -2.9990     2.2170    -0.0240 ca         1 P29       0.299000
     20 C20         -3.1000     3.5380     0.4470 ca         1 P29      -0.141500
     21 C21         -4.3270     4.2250     0.4030 ca         1 P29      -0.085000
     22 C22         -5.4650     3.5940    -0.1250 ca         1 P29      -0.130000
     23 C23         -5.3730     2.2810    -0.6120 ca         1 P29      -0.085000
     24 C24         -4.1440     1.5970    -0.5660 ca         1 P29      -0.141500
     25 C25         -3.4950    -3.4770     0.1900 ch         1 P29       0.345700
     26 N26         -4.6220    -3.7680     0.2630 n1         1 P29      -0.479000
     27 H02         -1.0720    -5.1510     0.0670 h4         1 P29       0.057800
     28 HN10         2.1860    -2.2090    -0.0930 hn         1 P29       0.535000
     29 H111         2.8590     0.5680    -0.8190 h1         1 P29       0.064700
     30 H112         2.9200     0.3130     0.9350 h1         1 P29       0.064700
     31 H121         4.5280    -1.5830     0.5950 hc         1 P29       0.062700
     32 H122         4.4580    -1.3350    -1.1450 hc         1 P29       0.062700
     33 HN14         5.7280     0.4770     2.0380 hn         1 P29       0.352000
     34 H15          7.5700     2.1470     1.5220 h5         1 P29       0.058100
     35 H17          6.1170     0.6780    -2.1510 h4         1 P29       0.040100
     36 HN18        -0.9680     2.2250     0.1810 hn         1 P29       0.512000
     37 H20         -2.2270     4.0370     0.8590 ha         1 P29       0.133500
     38 H21         -4.3940     5.2450     0.7760 ha         1 P29       0.116500
     39 H22         -6.4140     4.1240    -0.1610 ha         1 P29       0.117000
     40 H23         -6.2510     1.7940    -1.0320 ha         1 P29       0.116500
     41 H24         -4.0940     0.5930    -0.9720 ha         1 P29       0.133500
@<TRIPOS>BOND
     1     1     2 2   
     2     1     5 1   
     3     2     3 1   
     4     2    27 1   
     5     3     4 2   
     6     3    25 1   
     7     4     5 1   
     8     4     6 1   
     9     5     9 1   
    10     6     7 2   
    11     7     8 1   
    12     7    18 1   
    13     8     9 2   
    14     9    10 1   
    15    10    11 1   
    16    10    28 1   
    17    11    12 1   
    18    11    29 1   
    19    11    30 1   
    20    12    13 1   
    21    12    31 1   
    22    12    32 1   
    23    13    14 1   
    24    13    17 2   
    25    14    15 1   
    26    14    33 1   
    27    15    16 2   
    28    15    34 1   
    29    16    17 1   
    30    17    35 1   
    31    18    19 1   
    32    18    36 1   
    33    19    20 ar  
    34    19    24 ar  
    35    20    21 ar  
    36    20    37 1   
    37    21    22 ar  
    38    21    38 1   
    39    22    23 ar  
    40    22    39 1   
    41    23    24 ar  
    42    23    40 1   
    43    24    41 1   
    44    25    26 3   
@<TRIPOS>SUBSTRUCTURE
     1 P29         1 TEMP              0 ****  ****    0 ROOT
