@<TRIPOS>MOLECULE
P2B
   45    48     1     0     0
SMALL
bcc


@<TRIPOS>ATOM
      1 C1           0.7230     1.3130     0.0320 ca         1 P2B       0.752200
      2 N2           1.6640     2.2820     0.2090 nu         1 P2B      -0.745300
      3 C4           3.0490     2.1750     0.1900 ca         1 P2B       0.055300
      4 N5           1.1070     0.0710    -0.1910 nb         1 P2B      -0.843000
      5 C6           0.1450    -0.8430    -0.3600 ca         1 P2B       0.967900
      6 N7           0.5380    -2.1200    -0.5750 nh         1 P2B      -0.781300
      7 N8          -1.1640    -0.5970    -0.3370 nb         1 P2B      -0.816000
      8 C9          -1.5440     0.6610    -0.1160 cp         1 P2B       0.578800
      9 C10         -3.0050     0.9110    -0.0850 cp         1 P2B      -0.116500
     10 C11         -0.6330     1.6780     0.0880 ca         1 P2B      -0.481600
     11 C13          3.7680     1.0390     0.5580 ca         1 P2B      -0.107000
     12 C15          5.1520     1.0930     0.5210 ca         1 P2B      -0.225300
     13 C17          5.7800     2.2680     0.1390 ca         1 P2B       0.372200
     14 N19          5.1020     3.3600    -0.1960 nb         1 P2B      -0.643000
     15 C20          3.7820     3.3090    -0.1750 ca         1 P2B       0.351200
     16 C22         -0.3960    -3.2000    -0.8220 c6         1 P2B       0.191800
     17 C25         -0.0300    -4.3940     0.0420 c6         1 P2B       0.111900
     18 O28          1.3120    -4.7880    -0.1490 os         1 P2B      -0.399600
     19 C29          2.1990    -3.7320     0.1450 c6         1 P2B       0.111900
     20 C32          1.9240    -2.5130    -0.7180 c6         1 P2B       0.191800
     21 C35         -3.5260     2.1890    -0.2750 ca         1 P2B      -0.143000
     22 C37         -4.8990     2.3860    -0.2360 ca         1 P2B      -0.103000
     23 C39         -5.7650     1.3300    -0.0060 ca         1 P2B      -0.147000
     24 C41         -5.2470     0.0500     0.1820 ca         1 P2B       0.128100
     25 O42         -6.1200    -0.9530     0.4060 oh         1 P2B      -0.495100
     26 C44         -3.8740    -0.1560     0.1350 ca         1 P2B      -0.180000
     27 HN2          1.3080     3.2250     0.2320 hn         1 P2B       0.445800
     28 H11         -0.9280     2.6950     0.3040 ha         1 P2B       0.152000
     29 H13          3.2650     0.1400     0.8740 ha         1 P2B       0.161000
     30 H15          5.7380     0.2280     0.8010 ha         1 P2B       0.140000
     31 H17          6.8620     2.3320     0.1040 h4         1 P2B       0.022100
     32 H20          3.2540     4.2160    -0.4590 h4         1 P2B       0.014100
     33 H22         -1.4070    -2.8750    -0.5940 h1         1 P2B       0.068200
     34 H22A        -0.3640    -3.4810    -1.8810 h1         1 P2B       0.068200
     35 H25         -0.2110    -4.1460     1.0970 h1         1 P2B       0.053200
     36 H25A        -0.6600    -5.2460    -0.2180 h1         1 P2B       0.053200
     37 H29          2.1250    -3.4500     1.2050 h1         1 P2B       0.053200
     38 H29A         3.2110    -4.0950    -0.0390 h1         1 P2B       0.053200
     39 H32          2.1330    -2.7470    -1.7690 h1         1 P2B       0.068200
     40 H32A         2.5780    -1.6960    -0.4270 h1         1 P2B       0.068200
     41 H35         -2.8760     3.0300    -0.4740 ha         1 P2B       0.134000
     42 H37         -5.3020     3.3780    -0.3930 ha         1 P2B       0.135000
     43 H39         -6.8360     1.4890     0.0260 ha         1 P2B       0.148000
     44 HO42        -5.6510    -1.7890     0.5100 ho         1 P2B       0.427000
     45 H44         -3.4660    -1.1500     0.2760 ha         1 P2B       0.151000
@<TRIPOS>BOND
     1     1     2 1   
     2     1     4 ar  
     3     1    10 ar  
     4     2     3 1   
     5     2    27 1   
     6     3    11 ar  
     7     3    15 ar  
     8     4     5 ar  
     9     5     6 1   
    10     5     7 ar  
    11     6    16 1   
    12     6    20 1   
    13     7     8 ar  
    14     8     9 1   
    15     8    10 ar  
    16     9    21 ar  
    17     9    26 ar  
    18    10    28 1   
    19    11    12 ar  
    20    11    29 1   
    21    12    13 ar  
    22    12    30 1   
    23    13    14 ar  
    24    13    31 1   
    25    14    15 ar  
    26    15    32 1   
    27    16    17 1   
    28    16    33 1   
    29    16    34 1   
    30    17    18 1   
    31    17    35 1   
    32    17    36 1   
    33    18    19 1   
    34    19    20 1   
    35    19    37 1   
    36    19    38 1   
    37    20    39 1   
    38    20    40 1   
    39    21    22 ar  
    40    21    41 1   
    41    22    23 ar  
    42    22    42 1   
    43    23    24 ar  
    44    23    43 1   
    45    24    25 1   
    46    24    26 ar  
    47    25    44 1   
    48    26    45 1   
@<TRIPOS>SUBSTRUCTURE
     1 P2B         1 TEMP              0 ****  ****    0 ROOT
