@<TRIPOS>MOLECULE
P2B
   45    48     1     0     0
SMALL
No Charge or Current Charge


@<TRIPOS>ATOM
      1 C1           0.7230     1.3440    -0.0640 ca         1 P2B       0.423900
      2 N2           1.7000     2.3300    -0.0310 nu         1 P2B      -0.938900
      3 C4           3.1090     2.3170     0.1100 ca         1 P2B       0.259000
      4 N5           1.1080     0.0680    -0.1650 nb         1 P2B      -0.317000
      5 C6           0.1340    -0.8570    -0.2120 ca         1 P2B       0.441900
      6 N7           0.5330    -2.2190    -0.3010 nh         1 P2B      -0.781300
      7 N8          -1.1880    -0.6010    -0.1740 nb         1 P2B      -0.290000
      8 C9          -1.5900     0.6810    -0.0960 cp         1 P2B       0.250500
      9 C10         -3.0740     0.9450    -0.0670 cp         1 P2B      -0.116500
     10 C11         -0.6210     1.7070    -0.0360 ca         1 P2B      -0.333000
     11 C13          3.7820     1.2780     0.7850 ca         1 P2B      -0.089000
     12 C15          5.1840     1.3330     0.9010 ca         1 P2B      -0.142000
     13 C17          5.8820     2.4220     0.3500 ca         1 P2B       0.306900
     14 N19          5.2630     3.4410    -0.2890 nb         1 P2B      -0.643000
     15 C20          3.9090     3.3810    -0.3970 ca         1 P2B       0.285900
     16 C22         -0.4680    -3.3060    -0.6100 c6         1 P2B       0.191800
     17 C25          0.0230    -4.7250    -0.1980 c6         1 P2B       0.135100
     18 O28          1.3470    -4.9860    -0.7110 os         1 P2B      -0.446000
     19 C29          2.3230    -4.0480    -0.2060 c6         1 P2B       0.135100
     20 C32          1.9620    -2.5900    -0.6180 c6         1 P2B       0.191800
     21 C35         -3.6070     2.2170    -0.4140 ca         1 P2B      -0.125000
     22 C37         -4.9910     2.4620    -0.3880 ca         1 P2B      -0.085000
     23 C39         -5.8790     1.4410    -0.0160 ca         1 P2B      -0.129000
     24 C41         -5.3840     0.1760     0.3270 ca         1 P2B       0.128100
     25 O42         -6.2530    -0.8120     0.6870 oh         1 P2B      -0.534100
     26 C44         -4.0000    -0.0710     0.3010 ca         1 P2B      -0.162000
     27 HN2          1.3150     3.2550    -0.2260 hn         1 P2B       0.501000
     28 H11         -0.9060     2.7490     0.0500 ha         1 P2B       0.134000
     29 H13          3.2380     0.4520     1.2310 ha         1 P2B       0.143000
     30 H15          5.7280     0.5470     1.4160 ha         1 P2B       0.122000
     31 H17          6.9670     2.4850     0.4300 h4         1 P2B       0.022100
     32 H20          3.4420     4.2170    -0.9170 h4         1 P2B       0.014100
     33 H22         -1.4180    -3.1290    -0.0850 h1         1 P2B       0.068200
     34 H22A        -0.6910    -3.3110    -1.6870 h1         1 P2B       0.068200
     35 H25          0.0380    -4.8100     0.8990 h1         1 P2B       0.053200
     36 H25A        -0.6700    -5.4850    -0.5860 h1         1 P2B       0.053200
     37 H29          2.3630    -4.1250     0.8910 h1         1 P2B       0.053200
     38 H29A         3.3140    -4.3110    -0.6000 h1         1 P2B       0.053200
     39 H32          2.1460    -2.4750    -1.6960 h1         1 P2B       0.068200
     40 H32A         2.6690    -1.9260    -0.0990 h1         1 P2B       0.068200
     41 H35         -2.9490     3.0240    -0.7220 ha         1 P2B       0.116000
     42 H37         -5.3740     3.4430    -0.6600 ha         1 P2B       0.117000
     43 H39         -6.9490     1.6300     0.0040 ha         1 P2B       0.130000
     44 HO42        -5.7380    -1.6220     0.8920 ho         1 P2B       0.466000
     45 H44         -3.6370    -1.0580     0.5760 ha         1 P2B       0.133000
@<TRIPOS>BOND
     1     1     2 1   
     2     1     4 ar  
     3     1    10 ar  
     4     2     3 1   
     5     2    27 1   
     6     3    11 ar  
     7     3    15 ar  
     8     4     5 ar  
     9     5     6 1   
    10     5     7 ar  
    11     6    16 1   
    12     6    20 1   
    13     7     8 ar  
    14     8     9 1   
    15     8    10 ar  
    16     9    21 ar  
    17     9    26 ar  
    18    10    28 1   
    19    11    12 ar  
    20    11    29 1   
    21    12    13 ar  
    22    12    30 1   
    23    13    14 ar  
    24    13    31 1   
    25    14    15 ar  
    26    15    32 1   
    27    16    17 1   
    28    16    33 1   
    29    16    34 1   
    30    17    18 1   
    31    17    35 1   
    32    17    36 1   
    33    18    19 1   
    34    19    20 1   
    35    19    37 1   
    36    19    38 1   
    37    20    39 1   
    38    20    40 1   
    39    21    22 ar  
    40    21    41 1   
    41    22    23 ar  
    42    22    42 1   
    43    23    24 ar  
    44    23    43 1   
    45    24    25 1   
    46    24    26 ar  
    47    25    44 1   
    48    26    45 1   
@<TRIPOS>SUBSTRUCTURE
     1 P2B         1 TEMP              0 ****  ****    0 ROOT
