@<TRIPOS>MOLECULE
P2C
   29    30     1     0     0
SMALL
abcg2


@<TRIPOS>ATOM
      1 CL8          3.4310     2.4930    -0.0760 cl         1 P2C      -0.195500
      2 C1           2.1230     1.3880    -0.2740 ca         1 P2C       0.188500
      3 C2           2.4140     0.0340    -0.4420 ca         1 P2C      -0.052900
      4 O9           3.6930    -0.4180    -0.4790 os         1 P2C      -0.113100
      5 O10          4.2350    -0.4560     0.8510 os         1 P2C      -0.043000
      6 O11          3.8460    -1.6330     1.4460 oh         1 P2C      -0.437000
      7 C3           1.3360    -0.8320    -0.6160 ca         1 P2C       0.188500
      8 CL7          1.6420    -2.5090    -0.8820 cl         1 P2C      -0.195500
      9 C4           0.0310    -0.3860    -0.6350 ca         1 P2C      -0.185000
     10 C6           0.8310     1.8600    -0.2630 ca         1 P2C      -0.185000
     11 C5          -0.2440     0.9730    -0.4340 ca         1 P2C       0.425000
     12 N18         -1.5060     1.4820    -0.4540 nu         1 P2C      -0.952000
     13 C14         -2.7080     0.7640    -0.4860 ca         1 P2C       0.286000
     14 C15         -3.6600     1.1530    -1.4300 ca         1 P2C      -0.168000
     15 C16         -4.8820     0.5070    -1.5160 ca         1 P2C      -0.123000
     16 C17         -5.1460    -0.5740    -0.6850 ca         1 P2C      -0.145000
     17 C12         -4.1910    -0.9730     0.2360 ca         1 P2C      -0.077000
     18 C13         -2.9780    -0.3010     0.3850 ca         1 P2C      -0.138600
     19 C19         -2.0730    -0.7080     1.5440 c          1 P2C       0.710600
     20 O21         -1.5360     0.2170     2.1780 o          1 P2C      -0.705500
     21 O20         -1.9960    -1.9290     1.7740 o          1 P2C      -0.705500
     22 H11          3.0390    -1.3980     1.9320 ho         1 P2C       0.457000
     23 H4          -0.7650    -1.0950    -0.8080 ha         1 P2C       0.141500
     24 H6           0.6450     2.9170    -0.1200 ha         1 P2C       0.141500
     25 H18         -1.5810     2.4760    -0.6000 hn         1 P2C       0.483000
     26 H15         -3.4340     1.9700    -2.1050 ha         1 P2C       0.089000
     27 H16         -5.6130     0.8350    -2.2430 ha         1 P2C       0.090000
     28 H17         -6.0900    -1.1000    -0.7530 ha         1 P2C       0.093000
     29 H12         -4.3960    -1.8140     0.8860 ha         1 P2C       0.129000
@<TRIPOS>BOND
     1     1     2 1   
     2     2     3 ar  
     3     2    10 ar  
     4     3     4 1   
     5     3     7 ar  
     6     4     5 1   
     7     5     6 1   
     8     6    22 1   
     9     7     8 1   
    10     7     9 ar  
    11     9    11 ar  
    12     9    23 1   
    13    10    11 ar  
    14    10    24 1   
    15    11    12 1   
    16    12    13 1   
    17    12    25 1   
    18    13    14 ar  
    19    13    18 ar  
    20    14    15 ar  
    21    14    26 1   
    22    15    16 ar  
    23    15    27 1   
    24    16    17 ar  
    25    16    28 1   
    26    17    18 ar  
    27    17    29 1   
    28    18    19 1   
    29    19    20 1   
    30    19    21 1   
@<TRIPOS>SUBSTRUCTURE
     1 P2C         1 TEMP              0 ****  ****    0 ROOT
