@<TRIPOS>MOLECULE
P2C
   29    30     1     0     0
SMALL
No Charge or Current Charge


@<TRIPOS>ATOM
      1 Cl8          3.3670     2.4760     0.2170 cl         1 P2C      -0.195500
      2 C1           2.0810     1.3140    -0.1100 ca         1 P2C       0.188500
      3 C2           2.3610    -0.0610    -0.2380 ca         1 P2C      -0.052900
      4 O9           3.6470    -0.5280    -0.1040 os         1 P2C      -0.113100
      5 O10          3.9990    -0.6020     1.3150 os         1 P2C      -0.043000
      6 O11          5.3440    -1.1490     1.4100 oh         1 P2C      -0.437000
      7 C3           1.3150    -0.9560    -0.5280 ca         1 P2C       0.188500
      8 Cl7          1.6330    -2.6790    -0.7210 cl         1 P2C      -0.195500
      9 C4           0.0030    -0.4830    -0.6710 ca         1 P2C      -0.185000
     10 C6           0.7660     1.7790    -0.2560 ca         1 P2C      -0.185000
     11 C5          -0.2760     0.8820    -0.5190 ca         1 P2C       0.425000
     12 N18         -1.5710     1.3710    -0.6780 nu         1 P2C      -0.952000
     13 C14         -2.8330     0.7730    -0.6080 ca         1 P2C       0.286000
     14 C15         -3.7760     1.1660    -1.5750 ca         1 P2C      -0.168000
     15 C16         -5.0610     0.6000    -1.6020 ca         1 P2C      -0.123000
     16 C17         -5.4160    -0.3650    -0.6500 ca         1 P2C      -0.145000
     17 C12         -4.4930    -0.7500     0.3340 ca         1 P2C      -0.077000
     18 C13         -3.2010    -0.1800     0.3730 ca         1 P2C      -0.138600
     19 C19         -2.2800    -0.5790     1.4900 c          1 P2C       0.710600
     20 O21         -1.9330     0.2740     2.2950 o          1 P2C      -0.705500
     21 O20         -2.0380    -1.7700     1.6270 o          1 P2C      -0.705500
     22 H11          5.1370    -2.1080     1.4650 ho         1 P2C       0.457000
     23 H4          -0.7930    -1.1800    -0.9100 ha         1 P2C       0.141500
     24 H6           0.5580     2.8400    -0.1550 ha         1 P2C       0.141500
     25 H18         -1.5960     2.3390    -0.9980 hn         1 P2C       0.483000
     26 H15         -3.5070     1.9050    -2.3260 ha         1 P2C       0.089000
     27 H16         -5.7760     0.9060    -2.3620 ha         1 P2C       0.090000
     28 H17         -6.4100    -0.8070    -0.6680 ha         1 P2C       0.093000
     29 H12         -4.7830    -1.4850     1.0830 ha         1 P2C       0.129000
@<TRIPOS>BOND
     1     1     2 1   
     2     2     3 ar  
     3     2    10 ar  
     4     3     4 1   
     5     3     7 ar  
     6     4     5 1   
     7     5     6 1   
     8     6    22 1   
     9     7     8 1   
    10     7     9 ar  
    11     9    11 ar  
    12     9    23 1   
    13    10    11 ar  
    14    10    24 1   
    15    11    12 1   
    16    12    13 1   
    17    12    25 1   
    18    13    14 ar  
    19    13    18 ar  
    20    14    15 ar  
    21    14    26 1   
    22    15    16 ar  
    23    15    27 1   
    24    16    17 ar  
    25    16    28 1   
    26    17    18 ar  
    27    17    29 1   
    28    18    19 1   
    29    19    20 1   
    30    19    21 1   
@<TRIPOS>SUBSTRUCTURE
     1 P2C         1 TEMP              0 ****  ****    0 ROOT
