@<TRIPOS>MOLECULE
P2D
   15    14     1     0     0
SMALL
abcg2


@<TRIPOS>ATOM
      1 C1           2.4750    -0.8340     0.2150 c3         1 P2D      -0.203600
      2 C2           1.3120     0.0370    -0.1810 c          1 P2D       0.578600
      3 C3          -0.0060    -0.6950    -0.2800 c3         1 P2D      -0.301400
      4 C4          -1.2970     0.0860    -0.1520 c          1 P2D       0.578600
      5 C5          -2.4820    -0.7650     0.2170 c3         1 P2D      -0.203600
      6 O2           1.4400     1.2170    -0.4020 o          1 P2D      -0.484100
      7 O4          -1.3860     1.2730    -0.3420 o          1 P2D      -0.484100
      8 H1           2.3730    -1.8500    -0.1650 hc         1 P2D       0.060867
      9 H2           3.4180    -0.4090    -0.1240 hc         1 P2D       0.060867
     10 H3           2.4960    -0.8990     1.3060 hc         1 P2D       0.060867
     11 H4          -0.0290    -1.1720    -1.2700 hc         1 P2D       0.077700
     12 H5          -0.0140    -1.5370     0.4160 hc         1 P2D       0.077700
     13 H6          -2.4500    -0.9440     1.2960 hc         1 P2D       0.060867
     14 H7          -3.4210    -0.2740    -0.0310 hc         1 P2D       0.060867
     15 H8          -2.4380    -1.7440    -0.2620 hc         1 P2D       0.060867
@<TRIPOS>BOND
     1     1     2 1   
     2     1     8 1   
     3     1     9 1   
     4     1    10 1   
     5     2     3 1   
     6     2     6 2   
     7     3     4 1   
     8     3    11 1   
     9     3    12 1   
    10     4     5 1   
    11     4     7 2   
    12     5    13 1   
    13     5    14 1   
    14     5    15 1   
@<TRIPOS>SUBSTRUCTURE
     1 P2D         1 TEMP              0 ****  ****    0 ROOT
