@<TRIPOS>MOLECULE
P2D
   15    14     1     0     0
SMALL
No Charge or Current Charge


@<TRIPOS>ATOM
      1 C1           1.9450    -0.7900     0.6430 c3         1 P2D      -0.203600
      2 C2           1.2290    -0.0600    -0.4930 c          1 P2D       0.578600
      3 C3          -0.0150    -0.7210    -1.0600 c3         1 P2D      -0.301400
      4 C4          -1.2260    -0.0230    -0.4650 c          1 P2D       0.578600
      5 C5          -1.9380    -0.7310     0.6870 c3         1 P2D      -0.203600
      6 O2           1.6490     1.0000    -0.9340 o          1 P2D      -0.484100
      7 O4          -1.6230     1.0500    -0.8960 o          1 P2D      -0.484100
      8 H1           2.2040    -1.8010     0.3070 hc         1 P2D       0.060867
      9 H2           2.8280    -0.2490     1.0030 hc         1 P2D       0.060867
     10 H3           1.2340    -0.9890     1.4510 hc         1 P2D       0.060867
     11 H4          -0.0250    -0.5750    -2.1460 hc         1 P2D       0.077700
     12 H5          -0.0280    -1.7740    -0.7570 hc         1 P2D       0.077700
     13 H6          -1.2140    -0.9530     1.4790 hc         1 P2D       0.060867
     14 H7          -2.7950    -0.1630     1.0670 hc         1 P2D       0.060867
     15 H8          -2.2350    -1.7330     0.3570 hc         1 P2D       0.060867
@<TRIPOS>BOND
     1     1     2 1   
     2     1     8 1   
     3     1     9 1   
     4     1    10 1   
     5     2     3 1   
     6     2     6 2   
     7     3     4 1   
     8     3    11 1   
     9     3    12 1   
    10     4     5 1   
    11     4     7 2   
    12     5    13 1   
    13     5    14 1   
    14     5    15 1   
@<TRIPOS>SUBSTRUCTURE
     1 P2D         1 TEMP              0 ****  ****    0 ROOT
