@<TRIPOS>MOLECULE
P2E
   56    56     1     0     0
SMALL
No Charge or Current Charge


@<TRIPOS>ATOM
      1 C2           2.4960     2.8380    -0.4450 c3         1 P2E      -0.206400
      2 C3           3.3610     1.5730    -0.2160 c3         1 P2E      -0.048400
      3 C4           2.9860     0.4040    -1.1510 c3         1 P2E      -0.064200
      4 C5           3.8080    -0.8430    -0.8750 c2         1 P2E      -0.175200
      5 C6           3.4520    -1.8770    -0.0940 c2         1 P2E      -0.260200
      6 C7           2.1720    -1.9930     0.7110 c3         1 P2E      -0.013200
      7 C8           0.9970    -2.6040    -0.0930 c5         1 P2E      -0.166700
      8 C9           1.2200    -4.0960    -0.3840 c          1 P2E       0.580100
      9 O3           1.6380    -4.5880    -1.4230 o          1 P2E      -0.512100
     10 C12         -0.3800    -2.5320     0.6580 c5         1 P2E      -0.024500
     11 C11         -0.9520    -3.9860     0.5140 c5         1 P2E       0.173300
     12 O4          -1.8750    -4.3150     1.5450 oh         1 P2E      -0.646000
     13 C10          0.3420    -4.8130     0.6340 c5         1 P2E      -0.238400
     14 C13         -1.2900    -1.5230    -0.0410 c2         1 P2E      -0.205200
     15 C14         -1.0780    -0.2060     0.1420 c2         1 P2E      -0.233200
     16 C15         -1.8800     0.9200    -0.4710 c3         1 P2E       0.196500
     17 O5          -1.9400     0.7100    -1.8830 oh         1 P2E      -0.645000
     18 C16         -3.3110     0.9950     0.1110 c3         1 P2E      -0.103400
     19 C17         -4.1260     2.2200    -0.3700 c3         1 P2E      -0.075400
     20 C18         -5.5350     2.2920     0.2580 c3         1 P2E      -0.074400
     21 C19         -6.3490     3.5140    -0.2210 c3         1 P2E      -0.076400
     22 C20         -7.7550     3.5850     0.4060 c3         1 P2E      -0.087100
     23 O1           3.8240     4.7150     0.1450 o          1 P2E      -0.742500
     24 C1           2.9360     3.9600     0.5120 c          1 P2E       0.717000
     25 O2           2.4120     4.0180     1.6140 o          1 P2E      -0.742500
     26 H2           2.6670     3.1330    -1.4880 hc         1 P2E       0.015200
     27 H2A          1.4620     2.5370    -0.2350 hc         1 P2E       0.015200
     28 H3           4.4190     1.8240    -0.3630 hc         1 P2E       0.040700
     29 H3A          3.2520     1.2470     0.8260 hc         1 P2E       0.040700
     30 H4           1.9160     0.1920    -1.0390 hc         1 P2E       0.035700
     31 H4A          3.1240     0.7130    -2.1940 hc         1 P2E       0.035700
     32 H5           4.7660    -0.8640    -1.3990 ha         1 P2E       0.160000
     33 H6           4.1290    -2.7270     0.0190 ha         1 P2E       0.167000
     34 H7           2.3560    -2.5800     1.6190 hc         1 P2E       0.051700
     35 H7A          1.8820    -0.9980     1.0690 hc         1 P2E       0.051700
     36 H8           0.9720    -2.0870    -1.0580 hc         1 P2E       0.081700
     37 H12         -0.2450    -2.2730     1.7170 hc         1 P2E       0.067700
     38 H11         -1.4100    -4.1360    -0.4750 h1         1 P2E       0.032700
     39 HO4         -2.1460    -5.2470     1.3950 ho         1 P2E       0.438000
     40 H10          0.2200    -5.8730     0.3870 hc         1 P2E       0.073700
     41 H10A         0.7550    -4.6770     1.6400 hc         1 P2E       0.073700
     42 H13         -2.1100    -1.8590    -0.6800 ha         1 P2E       0.173000
     43 H14         -0.2670     0.1400     0.7860 ha         1 P2E       0.175000
     44 H15         -1.3690     1.8710    -0.2510 h1         1 P2E       0.103700
     45 HO5         -1.0740     0.3250    -2.1340 ho         1 P2E       0.429000
     46 H16         -3.8560     0.0760    -0.1390 hc         1 P2E       0.038700
     47 H16A        -3.2390     1.0300     1.2050 hc         1 P2E       0.038700
     48 H17         -3.5750     3.1370    -0.1260 hc         1 P2E       0.052200
     49 H17A        -4.2230     2.1880    -1.4630 hc         1 P2E       0.052200
     50 H18         -6.0850     1.3750     0.0130 hc         1 P2E       0.031200
     51 H18A        -5.4420     2.3280     1.3510 hc         1 P2E       0.031200
     52 H19         -5.8030     4.4340     0.0240 hc         1 P2E       0.041700
     53 H19A        -6.4470     3.4810    -1.3130 hc         1 P2E       0.041700
     54 H20         -8.3400     2.6940     0.1490 hc         1 P2E       0.027367
     55 H20A        -7.6900     3.6550     1.4980 hc         1 P2E       0.027367
     56 H20B        -8.2940     4.4660     0.0370 hc         1 P2E       0.027367
@<TRIPOS>BOND
     1     1     2 1   
     2     1    24 1   
     3     1    26 1   
     4     1    27 1   
     5     2     3 1   
     6     2    28 1   
     7     2    29 1   
     8     3     4 1   
     9     3    30 1   
    10     3    31 1   
    11     4     5 2   
    12     4    32 1   
    13     5     6 1   
    14     5    33 1   
    15     6     7 1   
    16     6    34 1   
    17     6    35 1   
    18     7     8 1   
    19     7    10 1   
    20     7    36 1   
    21     8     9 2   
    22     8    13 1   
    23    10    11 1   
    24    10    14 1   
    25    10    37 1   
    26    11    12 1   
    27    11    13 1   
    28    11    38 1   
    29    12    39 1   
    30    13    40 1   
    31    13    41 1   
    32    14    15 2   
    33    14    42 1   
    34    15    16 1   
    35    15    43 1   
    36    16    17 1   
    37    16    18 1   
    38    16    44 1   
    39    17    45 1   
    40    18    19 1   
    41    18    46 1   
    42    18    47 1   
    43    19    20 1   
    44    19    48 1   
    45    19    49 1   
    46    20    21 1   
    47    20    50 1   
    48    20    51 1   
    49    21    22 1   
    50    21    52 1   
    51    21    53 1   
    52    22    54 1   
    53    22    55 1   
    54    22    56 1   
    55    23    24 1   
    56    24    25 1   
@<TRIPOS>SUBSTRUCTURE
     1 P2E         1 TEMP              0 ****  ****    0 ROOT
