@<TRIPOS>MOLECULE
P2E
   56    56     1     0     0
SMALL
bcc


@<TRIPOS>ATOM
      1 C2           2.3190     3.0770    -0.8120 c3         1 P2E      -0.206400
      2 C3           3.1860     1.9270    -0.3270 c3         1 P2E      -0.048400
      3 C4           2.7890     0.5920    -0.9630 c3         1 P2E      -0.064200
      4 C5           3.6860    -0.5290    -0.5400 c2         1 P2E      -0.125200
      5 C6           3.3760    -1.5690     0.2330 c2         1 P2E      -0.210200
      6 C7           2.0320    -1.8440     0.8360 c3         1 P2E      -0.013200
      7 C8           1.2390    -2.9300     0.1080 c5         1 P2E      -0.166700
      8 C9           1.6370    -4.3550     0.4320 c          1 P2E       0.580100
      9 O3           2.7590    -4.7350     0.6600 o          1 P2E      -0.512100
     10 C12         -0.2750    -2.9070     0.3790 c5         1 P2E      -0.024500
     11 C11         -0.7150    -4.3010    -0.0690 c5         1 P2E       0.150100
     12 O4          -2.0010    -4.5870     0.4110 oh         1 P2E      -0.583800
     13 C10          0.3920    -5.2130     0.4600 c5         1 P2E      -0.238400
     14 C13         -0.9630    -1.7850    -0.3210 c2         1 P2E      -0.155200
     15 C14         -1.4320    -0.6990     0.2840 c2         1 P2E      -0.183200
     16 C15         -2.0780     0.4770    -0.3940 c3         1 P2E       0.173300
     17 O5          -2.2090     0.3100    -1.7860 oh         1 P2E      -0.582800
     18 C16         -3.4080     0.8220     0.2780 c3         1 P2E      -0.103400
     19 C17         -4.0480     2.1010    -0.2450 c3         1 P2E      -0.075400
     20 C18         -5.3410     2.4510     0.4810 c3         1 P2E      -0.074400
     21 C19         -5.9860     3.7350    -0.0250 c3         1 P2E      -0.076400
     22 C20         -7.2730     4.0810     0.7120 c3         1 P2E      -0.087100
     23 O1           3.5750     4.5430     0.6010 o          1 P2E      -0.847800
     24 C1           2.6330     4.4600    -0.2120 c          1 P2E       0.927600
     25 O2           1.9030     5.3980    -0.5950 o          1 P2E      -0.847800
     26 H2           2.3890     3.1540    -1.9040 hc         1 P2E       0.015200
     27 H2A          1.2640     2.8540    -0.6130 hc         1 P2E       0.015200
     28 H3           4.2380     2.1320    -0.5440 hc         1 P2E       0.040700
     29 H3A          3.1130     1.8350     0.7600 hc         1 P2E       0.040700
     30 H4           1.7440     0.3770    -0.7300 hc         1 P2E       0.035700
     31 H4A          2.8410     0.6920    -2.0530 hc         1 P2E       0.035700
     32 H5           4.7090    -0.4600    -0.9030 ha         1 P2E       0.110000
     33 H6           4.1520    -2.2990     0.4420 ha         1 P2E       0.117000
     34 H7           2.1490    -2.1320     1.8850 hc         1 P2E       0.051700
     35 H7A          1.4220    -0.9390     0.8360 hc         1 P2E       0.051700
     36 H8           1.3860    -2.8180    -0.9770 hc         1 P2E       0.081700
     37 H12         -0.4290    -2.8260     1.4640 hc         1 P2E       0.067700
     38 H11         -0.6920    -4.3270    -1.1690 h1         1 P2E       0.032700
     39 HO4         -2.2890    -5.4210     0.0280 ho         1 P2E       0.399000
     40 H10          0.5230    -6.1470    -0.0890 hc         1 P2E       0.073700
     41 H10A         0.1890    -5.4710     1.5060 hc         1 P2E       0.073700
     42 H13         -1.0160    -1.8690    -1.4040 ha         1 P2E       0.123000
     43 H14         -1.3540    -0.6170     1.3660 ha         1 P2E       0.125000
     44 H15         -1.4100     1.3400    -0.2690 h1         1 P2E       0.103700
     45 HO5         -2.8480    -0.3950    -1.9450 ho         1 P2E       0.390000
     46 H16         -4.1000    -0.0220     0.1620 hc         1 P2E       0.038700
     47 H16A        -3.2320     0.9200     1.3540 hc         1 P2E       0.038700
     48 H17         -3.3370     2.9280    -0.1390 hc         1 P2E       0.052200
     49 H17A        -4.2480     2.0060    -1.3160 hc         1 P2E       0.052200
     50 H18         -6.0530     1.6230     0.3780 hc         1 P2E       0.031200
     51 H18A        -5.1410     2.5450     1.5540 hc         1 P2E       0.031200
     52 H19         -5.2730     4.5600     0.0740 hc         1 P2E       0.041700
     53 H19A        -6.1920     3.6400    -1.0950 hc         1 P2E       0.041700
     54 H20         -8.0090     3.2810     0.6130 hc         1 P2E       0.027367
     55 H20A        -7.0910     4.2300     1.7780 hc         1 P2E       0.027367
     56 H20B        -7.7240     4.9950     0.3230 hc         1 P2E       0.027367
@<TRIPOS>BOND
     1     1     2 1   
     2     1    24 1   
     3     1    26 1   
     4     1    27 1   
     5     2     3 1   
     6     2    28 1   
     7     2    29 1   
     8     3     4 1   
     9     3    30 1   
    10     3    31 1   
    11     4     5 2   
    12     4    32 1   
    13     5     6 1   
    14     5    33 1   
    15     6     7 1   
    16     6    34 1   
    17     6    35 1   
    18     7     8 1   
    19     7    10 1   
    20     7    36 1   
    21     8     9 2   
    22     8    13 1   
    23    10    11 1   
    24    10    14 1   
    25    10    37 1   
    26    11    12 1   
    27    11    13 1   
    28    11    38 1   
    29    12    39 1   
    30    13    40 1   
    31    13    41 1   
    32    14    15 2   
    33    14    42 1   
    34    15    16 1   
    35    15    43 1   
    36    16    17 1   
    37    16    18 1   
    38    16    44 1   
    39    17    45 1   
    40    18    19 1   
    41    18    46 1   
    42    18    47 1   
    43    19    20 1   
    44    19    48 1   
    45    19    49 1   
    46    20    21 1   
    47    20    50 1   
    48    20    51 1   
    49    21    22 1   
    50    21    52 1   
    51    21    53 1   
    52    22    54 1   
    53    22    55 1   
    54    22    56 1   
    55    23    24 1   
    56    24    25 1   
@<TRIPOS>SUBSTRUCTURE
     1 P2E         1 TEMP              0 ****  ****    0 ROOT
