@<TRIPOS>MOLECULE
P2F
  101   104     1     0     0
SMALL
bcc


@<TRIPOS>ATOM
      1 O3           0.5940    -2.8280    -0.1130 o          1 P2F      -0.598100
      2 C15          0.6640    -1.6310     0.1170 c          1 P2F       0.692700
      3 C25          1.9450    -0.8820    -0.0790 ca         1 P2F      -0.149600
      4 C24          2.3400     0.1050     0.8170 ca         1 P2F      -0.079000
      5 C26          2.7610    -1.1960    -1.1560 ca         1 P2F      -0.044000
      6 C27          3.9640    -0.5270    -1.3350 ca         1 P2F       0.102600
      7 N2           4.7690    -0.9030    -2.4440 nh         1 P2F      -0.629900
      8 C30          5.6660    -2.0620    -2.2770 c6         1 P2F       0.202800
      9 C31          5.9410    -2.7280    -3.6150 c6         1 P2F      -0.095400
     10 C32          6.5400    -1.7770    -4.6450 c6         1 P2F      -0.056400
     11 C29          5.6390    -0.5760    -4.9060 c6         1 P2F      -0.199600
     12 S1           5.3630     0.3290    -3.3990 s6         1 P2F       1.216900
     13 O4           4.2940     1.3040    -3.5490 o          1 P2F      -0.606300
     14 O5           6.6560     0.8020    -2.9120 o          1 P2F      -0.606300
     15 C22          4.3660     0.4430    -0.4230 ca         1 P2F      -0.089000
     16 C23          3.5410     0.7780     0.6420 ca         1 P2F      -0.132600
     17 C28          4.0340     1.7790     1.6440 c          1 P2F       0.680700
     18 N3           3.2360     2.8210     1.9490 n          1 P2F      -0.469800
     19 C33          3.7040     3.7820     2.9390 c3         1 P2F       0.097000
     20 C34          4.6350     4.8420     2.3620 c3         1 P2F      -0.097900
     21 C35          5.0530     5.8480     3.4250 c3         1 P2F      -0.090600
     22 C36          2.0550     3.2080     1.1880 c3         1 P2F       0.097000
     23 C37          0.7470     3.0650     1.9580 c3         1 P2F      -0.097900
     24 C38         -0.4480     3.4210     1.0850 c3         1 P2F      -0.090600
     25 O6           5.1330     1.6100     2.1570 o          1 P2F      -0.590100
     26 N1          -0.3620    -0.8780     0.5460 ns         1 P2F      -0.562900
     27 C11         -1.6470    -1.3930     0.9670 c3         1 P2F       0.084700
     28 C14         -1.8060    -1.2340     2.4890 c3         1 P2F      -0.047100
     29 C19         -0.6050    -1.7440     3.2350 ca         1 P2F      -0.083300
     30 C20          0.2780    -0.8600     3.8480 ca         1 P2F      -0.123500
     31 C21          1.4170    -1.3200     4.4960 ca         1 P2F      -0.123000
     32 C16          1.6850    -2.6800     4.5430 ca         1 P2F      -0.123000
     33 C17          0.8060    -3.5740     3.9430 ca         1 P2F      -0.123000
     34 C18         -0.3280    -3.1080     3.2930 ca         1 P2F      -0.123500
     35 C10         -2.7540    -0.7020     0.1580 c3         1 P2F       0.120100
     36 O2          -2.6550     0.7080     0.2460 oh         1 P2F      -0.599800
     37 C9          -4.1440    -1.2000     0.5290 c3         1 P2F       0.139800
     38 N4          -5.1120    -0.7060    -0.4270 n7         1 P2F      -0.821200
     39 C7          -6.5110    -1.0860    -0.2300 c3         1 P2F       0.245500
     40 C12         -6.6400    -2.6130    -0.2760 c3         1 P2F      -0.102600
     41 C13         -7.0590    -0.5730     1.1100 c3         1 P2F      -0.102600
     42 C3          -7.3100    -0.5210    -1.4070 ca         1 P2F      -0.045300
     43 C2          -6.6860    -0.2100    -2.6180 ca         1 P2F      -0.146000
     44 C1          -7.4340     0.2570    -3.6860 ca         1 P2F      -0.097000
     45 C6          -8.8100     0.4230    -3.5930 ca         1 P2F      -0.212000
     46 C5          -9.4400     0.1030    -2.3940 ca         1 P2F       0.135100
     47 C4          -8.6870    -0.3630    -1.3160 ca         1 P2F      -0.164000
     48 O1         -10.7680     0.2140    -2.1800 os         1 P2F      -0.322900
     49 C8         -11.5840     0.6850    -3.2320 c3         1 P2F       0.126700
     50 H1          -0.2490     0.1240     0.5720 hn         1 P2F       0.324500
     51 H24          1.7300     0.3130     1.6860 ha         1 P2F       0.146000
     52 H26          2.4640    -1.9540    -1.8710 ha         1 P2F       0.161000
     53 H22          5.3220     0.9360    -0.5380 ha         1 P2F       0.163000
     54 H301         6.5960    -1.7660    -1.7790 h1         1 P2F       0.064200
     55 H302         5.1530    -2.7610    -1.6190 h1         1 P2F       0.064200
     56 H311         6.6240    -3.5630    -3.4500 hc         1 P2F       0.061700
     57 H312         5.0080    -3.1460    -4.0010 hc         1 P2F       0.061700
     58 H321         7.5260    -1.4340    -4.3220 hc         1 P2F       0.062200
     59 H322         6.6850    -2.2950    -5.5940 hc         1 P2F       0.062200
     60 H291         6.0890     0.1340    -5.6030 h1         1 P2F       0.105700
     61 H292         4.6590    -0.8690    -5.2830 h1         1 P2F       0.105700
     62 H331         2.8260     4.2640     3.3750 h1         1 P2F       0.054950
     63 H332         4.1980     3.2460     3.7500 h1         1 P2F       0.054950
     64 H361         2.1780     4.2510     0.8800 h1         1 P2F       0.054950
     65 H362         2.0130     2.6300     0.2660 h1         1 P2F       0.054950
     66 H341         5.5180     4.3600     1.9380 hc         1 P2F       0.046200
     67 H342         4.1350     5.3630     1.5410 hc         1 P2F       0.046200
     68 H351         5.6010     5.3640     4.2350 hc         1 P2F       0.036200
     69 H352         5.6970     6.6200     3.0050 hc         1 P2F       0.036200
     70 H353         4.1850     6.3440     3.8640 hc         1 P2F       0.036200
     71 H371         0.6420     2.0440     2.3360 hc         1 P2F       0.046200
     72 H372         0.7590     3.7110     2.8390 hc         1 P2F       0.046200
     73 H381        -1.3760     3.3750     1.6550 hc         1 P2F       0.036200
     74 H382        -0.3580     4.4310     0.6840 hc         1 P2F       0.036200
     75 H383        -0.5450     2.7370     0.2410 hc         1 P2F       0.036200
     76 H11         -1.6700    -2.4540     0.7170 h1         1 P2F       0.090700
     77 H141        -1.9610    -0.1800     2.7440 hc         1 P2F       0.047200
     78 H142        -2.7040    -1.7680     2.8080 hc         1 P2F       0.047200
     79 H10         -2.5810    -0.9400    -0.8950 h1         1 P2F       0.101700
     80 H20          0.0670     0.2040     3.8260 ha         1 P2F       0.126500
     81 H18         -1.0050    -3.8140     2.8270 ha         1 P2F       0.126500
     82 H21          2.0920    -0.6150     4.9660 ha         1 P2F       0.133000
     83 H16          2.5720    -3.0450     5.0460 ha         1 P2F       0.133000
     84 H17          1.0060    -4.6370     3.9800 ha         1 P2F       0.133000
     85 H2          -2.9970     0.9980     1.0990 ho         1 P2F       0.397000
     86 H91C        -4.1270    -2.2920     0.5040 h1         1 P2F       0.036200
     87 H92C        -4.3640    -0.9170     1.5700 h1         1 P2F       0.036200
     88 H4          -5.0530     0.3050    -0.4580 hn         1 P2F       0.369800
     89 H121        -6.1620    -3.0840     0.5850 hc         1 P2F       0.041033
     90 H122        -7.6900    -2.9060    -0.2630 hc         1 P2F       0.041033
     91 H123        -6.1860    -3.0130    -1.1840 hc         1 P2F       0.041033
     92 H131        -7.0080     0.5170     1.1640 hc         1 P2F       0.041033
     93 H132        -8.0920    -0.8710     1.2810 hc         1 P2F       0.041033
     94 H133        -6.4790    -0.9820     1.9380 hc         1 P2F       0.041033
     95 HA          -5.6180    -0.3370    -2.7200 ha         1 P2F       0.153000
     96 HB          -9.2150    -0.6060    -0.4020 ha         1 P2F       0.141000
     97 HC          -6.9390     0.5010    -4.6180 ha         1 P2F       0.129000
     98 H6          -9.3590     0.7920    -4.4480 ha         1 P2F       0.134000
     99 H81C       -11.3130     1.6990    -3.5390 h1         1 P2F       0.039367
    100 H82C       -11.5430     0.0310    -4.1070 h1         1 P2F       0.039367
    101 H83C       -12.6030     0.6960    -2.8530 h1         1 P2F       0.039367
@<TRIPOS>BOND
     1     1     2 2   
     2     2     3 1   
     3     2    26 1   
     4     3     4 ar  
     5     3     5 ar  
     6     4    16 ar  
     7     4    51 1   
     8     5     6 ar  
     9     5    52 1   
    10     6     7 1   
    11     6    15 ar  
    12     7     8 1   
    13     7    12 1   
    14     8     9 1   
    15     8    54 1   
    16     8    55 1   
    17     9    10 1   
    18     9    56 1   
    19     9    57 1   
    20    10    11 1   
    21    10    58 1   
    22    10    59 1   
    23    11    12 1   
    24    11    60 1   
    25    11    61 1   
    26    12    13 2   
    27    12    14 2   
    28    15    16 ar  
    29    15    53 1   
    30    16    17 1   
    31    17    18 1   
    32    17    25 2   
    33    18    19 1   
    34    18    22 1   
    35    19    20 1   
    36    19    62 1   
    37    19    63 1   
    38    20    21 1   
    39    20    66 1   
    40    20    67 1   
    41    21    68 1   
    42    21    69 1   
    43    21    70 1   
    44    22    23 1   
    45    22    64 1   
    46    22    65 1   
    47    23    24 1   
    48    23    71 1   
    49    23    72 1   
    50    24    73 1   
    51    24    74 1   
    52    24    75 1   
    53    26    27 1   
    54    26    50 1   
    55    27    28 1   
    56    27    35 1   
    57    27    76 1   
    58    28    29 1   
    59    28    77 1   
    60    28    78 1   
    61    29    30 ar  
    62    29    34 ar  
    63    30    31 ar  
    64    30    80 1   
    65    31    32 ar  
    66    31    82 1   
    67    32    33 ar  
    68    32    83 1   
    69    33    34 ar  
    70    33    84 1   
    71    34    81 1   
    72    35    36 1   
    73    35    37 1   
    74    35    79 1   
    75    36    85 1   
    76    37    38 1   
    77    37    86 1   
    78    37    87 1   
    79    38    39 1   
    80    38    88 1   
    81    39    40 1   
    82    39    41 1   
    83    39    42 1   
    84    40    89 1   
    85    40    90 1   
    86    40    91 1   
    87    41    92 1   
    88    41    93 1   
    89    41    94 1   
    90    42    43 ar  
    91    42    47 ar  
    92    43    44 ar  
    93    43    95 1   
    94    44    45 ar  
    95    44    97 1   
    96    45    46 ar  
    97    45    98 1   
    98    46    47 ar  
    99    46    48 1   
   100    47    96 1   
   101    48    49 1   
   102    49    99 1   
   103    49   100 1   
   104    49   101 1   
@<TRIPOS>SUBSTRUCTURE
     1 P2F         1 TEMP              0 ****  ****    0 ROOT
