@<TRIPOS>MOLECULE
P2F
  101   104     1     0     0
SMALL
No Charge or Current Charge


@<TRIPOS>ATOM
      1 O3          -0.1480    -2.0650    -1.1230 o          1 P2F      -0.598100
      2 C15          0.2960    -1.1930    -0.3880 c          1 P2F       0.625700
      3 C25          1.7120    -0.6760    -0.5100 ca         1 P2F      -0.149600
      4 C24          2.3150     0.1030     0.5060 ca         1 P2F      -0.061000
      5 C26          2.4760    -1.0130    -1.6480 ca         1 P2F      -0.026000
      6 C27          3.8080    -0.5880    -1.7830 ca         1 P2F       0.241000
      7 N2           4.5390    -0.9520    -2.9280 nh         1 P2F      -0.768300
      8 C30          5.9100    -1.4940    -2.7430 c6         1 P2F       0.202800
      9 C31          6.3670    -2.3650    -3.9360 c6         1 P2F      -0.095400
     10 C32          6.4850    -1.5440    -5.2390 c6         1 P2F      -0.056400
     11 C29          5.1200    -0.9230    -5.6110 c6         1 P2F      -0.310400
     12 S1           4.4160     0.1000    -4.2950 s6         1 P2F       1.186100
     13 O4           2.9880     0.3090    -4.5550 o          1 P2F      -0.535500
     14 O5           5.3000     1.2410    -4.0340 o          1 P2F      -0.535500
     15 C22          4.3870     0.1910    -0.7650 ca         1 P2F      -0.071000
     16 C23          3.6450     0.5600     0.3760 ca         1 P2F      -0.132600
     17 C28          4.3100     1.3640     1.4720 c          1 P2F       0.613700
     18 N3           3.5030     2.2220     2.2610 n          1 P2F      -0.402800
     19 C33          4.0350     2.6930     3.5690 c3         1 P2F       0.097000
     20 C34          4.7710     4.0510     3.5090 c3         1 P2F      -0.097900
     21 C35          5.3550     4.4740     4.8700 c3         1 P2F      -0.090600
     22 C36          2.4950     3.0930     1.5870 c3         1 P2F       0.097000
     23 C37          1.3210     3.5510     2.4820 c3         1 P2F      -0.097900
     24 C38          0.2260     4.2950     1.6960 c3         1 P2F      -0.090600
     25 O6           5.4970     1.1970     1.7250 o          1 P2F      -0.590100
     26 N1          -0.4570    -0.6580     0.6310 ns         1 P2F      -0.495900
     27 C11         -1.7580    -1.1700     1.0840 c3         1 P2F       0.084700
     28 C14         -1.9880    -0.7770     2.5730 c3         1 P2F      -0.047100
     29 C19         -0.7180    -0.8540     3.4220 ca         1 P2F      -0.083300
     30 C20         -0.2400     0.2930     4.0870 ca         1 P2F      -0.105500
     31 C21          0.9570     0.2420     4.8230 ca         1 P2F      -0.105000
     32 C16          1.6810    -0.9580     4.9060 ca         1 P2F      -0.105000
     33 C17          1.2040    -2.1090     4.2580 ca         1 P2F      -0.105000
     34 C18          0.0080    -2.0590     3.5200 ca         1 P2F      -0.105500
     35 C10         -2.9190    -0.7740     0.1140 c3         1 P2F       0.143300
     36 O2          -3.0320     0.6660    -0.0020 oh         1 P2F      -0.662000
     37 C9          -4.2890    -1.3920     0.5190 c3         1 P2F       0.139800
     38 N4          -5.3270    -1.0900    -0.5010 n7         1 P2F      -0.876400
     39 C7          -6.7360    -1.4920    -0.2650 c3         1 P2F       0.245500
     40 C12         -6.8090    -3.0190     0.0040 c3         1 P2F      -0.102600
     41 C13         -7.2730    -0.7270     0.9770 c3         1 P2F      -0.102600
     42 C3          -7.5220    -1.1670    -1.5650 ca         1 P2F      -0.045300
     43 C2          -7.0960    -1.7380    -2.7870 ca         1 P2F      -0.128000
     44 C1          -7.7760    -1.4790    -3.9880 ca         1 P2F      -0.079000
     45 C6          -8.8980    -0.6380    -3.9950 ca         1 P2F      -0.194000
     46 C5          -9.3400    -0.0520    -2.7920 ca         1 P2F       0.135100
     47 C4          -8.6560    -0.3150    -1.5940 ca         1 P2F      -0.146000
     48 O1         -10.4360     0.7860    -2.7350 os         1 P2F      -0.346100
     49 C8         -11.2080     1.1210    -3.9020 c3         1 P2F       0.149900
     50 H1          -0.0260     0.0730     1.1790 hn         1 P2F       0.324500
     51 H24          1.7730     0.3330     1.4210 ha         1 P2F       0.128000
     52 H26          2.0420    -1.6190    -2.4380 ha         1 P2F       0.143000
     53 H22          5.4160     0.5260    -0.8670 ha         1 P2F       0.145000
     54 H301         6.6340    -0.6790    -2.5910 h1         1 P2F       0.064200
     55 H302         5.9380    -2.1180    -1.8370 h1         1 P2F       0.064200
     56 H311         7.3410    -2.8150    -3.7010 hc         1 P2F       0.061700
     57 H312         5.6660    -3.1990    -4.0750 hc         1 P2F       0.061700
     58 H321         7.2410    -0.7550    -5.1190 hc         1 P2F       0.062200
     59 H322         6.8360    -2.1900    -6.0560 hc         1 P2F       0.062200
     60 H291         5.1940    -0.2760    -6.4940 h1         1 P2F       0.105700
     61 H292         4.3740    -1.7050    -5.7960 h1         1 P2F       0.105700
     62 H331         3.2050     2.7650     4.2830 h1         1 P2F       0.054950
     63 H332         4.7180     1.9360     3.9750 h1         1 P2F       0.054950
     64 H361         3.0120     3.9830     1.2060 h1         1 P2F       0.054950
     65 H362         2.0780     2.5870     0.7100 h1         1 P2F       0.054950
     66 H341         5.5830     3.9890     2.7750 hc         1 P2F       0.046200
     67 H342         4.0860     4.8340     3.1630 hc         1 P2F       0.046200
     68 H351         6.0780     3.7310     5.2290 hc         1 P2F       0.036200
     69 H352         5.8700     5.4380     4.7830 hc         1 P2F       0.036200
     70 H353         4.5610     4.5750     5.6190 hc         1 P2F       0.036200
     71 H371         0.8760     2.6730     2.9630 hc         1 P2F       0.046200
     72 H372         1.6880     4.2060     3.2810 hc         1 P2F       0.046200
     73 H381        -0.5860     4.6010     2.3680 hc         1 P2F       0.036200
     74 H382         0.6340     5.1950     1.2200 hc         1 P2F       0.036200
     75 H383        -0.1990     3.6510     0.9170 hc         1 P2F       0.036200
     76 H11         -1.6870    -2.2670     1.0580 h1         1 P2F       0.090700
     77 H141        -2.3960     0.2390     2.6200 hc         1 P2F       0.047200
     78 H142        -2.7570    -1.4310     3.0040 hc         1 P2F       0.047200
     79 H10         -2.6680    -1.1960    -0.8690 h1         1 P2F       0.101700
     80 H20         -0.7900     1.2290     4.0270 ha         1 P2F       0.108500
     81 H18         -0.3470    -2.9540     3.0160 ha         1 P2F       0.108500
     82 H21          1.3230     1.1340     5.3270 ha         1 P2F       0.115000
     83 H16          2.6080    -0.9970     5.4740 ha         1 P2F       0.115000
     84 H17          1.7620    -3.0410     4.3230 ha         1 P2F       0.115000
     85 H2          -3.2610     1.0120     0.8860 ho         1 P2F       0.436000
     86 H91C        -4.1640    -2.4780     0.6310 h1         1 P2F       0.036200
     87 H92C        -4.5740    -0.9890     1.4990 h1         1 P2F       0.036200
     88 H4          -5.3100    -0.0790    -0.6730 hn         1 P2F       0.425000
     89 H121        -6.3540    -3.2800     0.9660 hc         1 P2F       0.041033
     90 H122        -7.8540    -3.3500     0.0320 hc         1 P2F       0.041033
     91 H123        -6.2950    -3.5910    -0.7780 hc         1 P2F       0.041033
     92 H131        -7.1850     0.3580     0.8420 hc         1 P2F       0.041033
     93 H132        -8.3270    -0.9710     1.1570 hc         1 P2F       0.041033
     94 H133        -6.7310    -1.0000     1.8890 hc         1 P2F       0.041033
     95 HA          -6.2220    -2.3850    -2.8080 ha         1 P2F       0.135000
     96 HB          -9.0300     0.1590    -0.6920 ha         1 P2F       0.123000
     97 HC          -7.4280    -1.9300    -4.9150 ha         1 P2F       0.111000
     98 H6          -9.4060    -0.4540    -4.9370 ha         1 P2F       0.116000
     99 H81C       -10.5840     1.6260    -4.6510 h1         1 P2F       0.039367
    100 H82C       -11.6430     0.2210    -4.3550 h1         1 P2F       0.039367
    101 H83C       -12.0290     1.7970    -3.6330 h1         1 P2F       0.039367
@<TRIPOS>BOND
     1     1     2 2   
     2     2     3 1   
     3     2    26 1   
     4     3     4 ar  
     5     3     5 ar  
     6     4    16 ar  
     7     4    51 1   
     8     5     6 ar  
     9     5    52 1   
    10     6     7 1   
    11     6    15 ar  
    12     7     8 1   
    13     7    12 1   
    14     8     9 1   
    15     8    54 1   
    16     8    55 1   
    17     9    10 1   
    18     9    56 1   
    19     9    57 1   
    20    10    11 1   
    21    10    58 1   
    22    10    59 1   
    23    11    12 1   
    24    11    60 1   
    25    11    61 1   
    26    12    13 2   
    27    12    14 2   
    28    15    16 ar  
    29    15    53 1   
    30    16    17 1   
    31    17    18 1   
    32    17    25 2   
    33    18    19 1   
    34    18    22 1   
    35    19    20 1   
    36    19    62 1   
    37    19    63 1   
    38    20    21 1   
    39    20    66 1   
    40    20    67 1   
    41    21    68 1   
    42    21    69 1   
    43    21    70 1   
    44    22    23 1   
    45    22    64 1   
    46    22    65 1   
    47    23    24 1   
    48    23    71 1   
    49    23    72 1   
    50    24    73 1   
    51    24    74 1   
    52    24    75 1   
    53    26    27 1   
    54    26    50 1   
    55    27    28 1   
    56    27    35 1   
    57    27    76 1   
    58    28    29 1   
    59    28    77 1   
    60    28    78 1   
    61    29    30 ar  
    62    29    34 ar  
    63    30    31 ar  
    64    30    80 1   
    65    31    32 ar  
    66    31    82 1   
    67    32    33 ar  
    68    32    83 1   
    69    33    34 ar  
    70    33    84 1   
    71    34    81 1   
    72    35    36 1   
    73    35    37 1   
    74    35    79 1   
    75    36    85 1   
    76    37    38 1   
    77    37    86 1   
    78    37    87 1   
    79    38    39 1   
    80    38    88 1   
    81    39    40 1   
    82    39    41 1   
    83    39    42 1   
    84    40    89 1   
    85    40    90 1   
    86    40    91 1   
    87    41    92 1   
    88    41    93 1   
    89    41    94 1   
    90    42    43 ar  
    91    42    47 ar  
    92    43    44 ar  
    93    43    95 1   
    94    44    45 ar  
    95    44    97 1   
    96    45    46 ar  
    97    45    98 1   
    98    46    47 ar  
    99    46    48 1   
   100    47    96 1   
   101    48    49 1   
   102    49    99 1   
   103    49   100 1   
   104    49   101 1   
@<TRIPOS>SUBSTRUCTURE
     1 P2F         1 TEMP              0 ****  ****    0 ROOT
