@<TRIPOS>MOLECULE
P2G
   37    40     1     0     0
SMALL
No Charge or Current Charge


@<TRIPOS>ATOM
      1 O6          -6.0270     0.2560     0.7590 o          1 P2G      -0.565000
      2 C6          -4.9010     0.4990     0.3460 c          1 P2G       0.526500
      3 N1          -4.6190     1.6350    -0.3440 ns         1 P2G      -0.464400
      4 C2          -3.3890     1.9400    -0.8120 cc         1 P2G       0.728800
      5 N2          -3.2930     3.0820    -1.4660 nv         1 P2G      -1.073200
      6 N3          -2.2890     1.2330    -0.6940 nd         1 P2G      -0.660100
      7 C4          -2.4910     0.0420     0.0050 cd         1 P2G       0.162400
      8 C5          -3.6990    -0.3540     0.5150 cc         1 P2G       0.070500
      9 N7          -3.5840    -1.5720     1.1500 nc         1 P2G      -0.640000
     10 C8          -2.3000    -1.9130     1.0180 cd         1 P2G       0.420400
     11 N9          -1.5860    -0.9430     0.3220 na         1 P2G      -0.141500
     12 C1          -0.1640    -0.9710     0.0020 c5         1 P2G       0.251300
     13 O4           0.1990    -2.2840    -0.4650 os         1 P2G      -0.479000
     14 C7           0.8110    -0.7010     1.1960 c5         1 P2G       0.097300
     15 O2           1.3790     0.6290     1.0820 os         1 P2G      -0.390000
     16 C11          2.5330     0.5080     0.2100 c5         1 P2G       0.119300
     17 P            3.7250     2.0560     0.1270 p5         1 P2G       1.285500
     18 O3           4.8510     1.7440    -0.8090 o          1 P2G      -0.911167
     19 O1           2.9530     3.2320    -0.3820 o          1 P2G      -0.911167
     20 O7           4.2600     2.3440     1.4960 o          1 P2G      -0.911167
     21 O8           3.1230    -0.7350     0.6770 os         1 P2G      -0.397000
     22 C3           2.0230    -1.6500     0.9080 c5         1 P2G       0.100300
     23 C9           1.6400    -2.3540    -0.4360 c5         1 P2G       0.126300
     24 C10          2.1350    -3.8230    -0.5490 c3         1 P2G       0.165600
     25 O5           1.9280    -4.3490    -1.8730 oh         1 P2G      -0.712000
     26 HN1         -5.3750     2.2840    -0.4850 hn         1 P2G       0.302500
     27 HN21        -2.4150     3.1840    -1.9600 hn         1 P2G       0.505500
     28 HN22        -4.1110     3.3840    -1.9810 hn         1 P2G       0.505500
     29 H8          -1.8280    -2.8150     1.3930 h5         1 P2G       0.060100
     30 H1          -0.0040    -0.2360    -0.7980 h2         1 P2G       0.110700
     31 H2           0.3550    -0.8520     2.1830 h1         1 P2G       0.063700
     32 H6           2.1670     0.3470    -0.8110 h2         1 P2G      -0.009300
     33 H3           2.2500    -2.3440     1.7270 h1         1 P2G       0.054700
     34 H4           2.0340    -1.7940    -1.2960 h1         1 P2G       0.083700
     35 H5'1         3.2050    -3.8480    -0.3030 h1         1 P2G       0.022700
     36 H5'2         1.6090    -4.4340     0.1960 h1         1 P2G       0.022700
     37 H5           2.2070    -5.2930    -1.8520 ho         1 P2G       0.479000
@<TRIPOS>BOND
     1     1     2 2   
     2     2     3 1   
     3     2     8 1   
     4     3     4 1   
     5     3    26 1   
     6     4     5 1   
     7     4     6 2   
     8     5    27 1   
     9     5    28 1   
    10     6     7 1   
    11     7     8 2   
    12     7    11 1   
    13     8     9 1   
    14     9    10 2   
    15    10    11 1   
    16    10    29 1   
    17    11    12 1   
    18    12    13 1   
    19    12    14 1   
    20    12    30 1   
    21    13    23 1   
    22    14    15 1   
    23    14    22 1   
    24    14    31 1   
    25    15    16 1   
    26    16    17 1   
    27    16    21 1   
    28    16    32 1   
    29    17    18 1   
    30    17    19 1   
    31    17    20 1   
    32    21    22 1   
    33    22    23 1   
    34    22    33 1   
    35    23    24 1   
    36    23    34 1   
    37    24    25 1   
    38    24    35 1   
    39    24    36 1   
    40    25    37 1   
@<TRIPOS>SUBSTRUCTURE
     1 P2G         1 TEMP              0 ****  ****    0 ROOT
