@<TRIPOS>MOLECULE
P2G
   37    40     1     0     0
SMALL
abcg2


@<TRIPOS>ATOM
      1 O6          -5.8980     0.1800     1.0250 o          1 P2G      -0.565000
      2 C6          -4.8140     0.3590     0.4960 c          1 P2G       0.526500
      3 N1          -4.6410     1.3780    -0.4490 ns         1 P2G      -0.464400
      4 C2          -3.4840     1.6760    -1.1120 cc         1 P2G       0.728800
      5 N2          -3.5260     2.6820    -1.9880 nv         1 P2G      -1.073200
      6 N3          -2.3630     1.0230    -0.9180 nd         1 P2G      -0.660100
      7 C4          -2.4770     0.0390    -0.0180 cd         1 P2G       0.162400
      8 C5          -3.5950    -0.3510     0.6950 cc         1 P2G       0.070500
      9 N7          -3.3030    -1.4100     1.5170 nc         1 P2G      -0.640000
     10 C8          -2.0460    -1.6490     1.3120 cd         1 P2G       0.420400
     11 N9          -1.4830    -0.7970     0.3910 na         1 P2G      -0.141500
     12 C1          -0.1210    -0.7990    -0.0590 c5         1 P2G       0.251300
     13 O4           0.1540    -2.0600    -0.6070 os         1 P2G      -0.479000
     14 C7           0.9200    -0.5890     1.0590 c5         1 P2G       0.097300
     15 O2           1.5190     0.6730     1.0570 os         1 P2G      -0.390000
     16 C11          2.6790     0.5660     0.2470 c5         1 P2G       0.119300
     17 P            3.9360     1.9070     0.6150 p5         1 P2G       1.285500
     18 O3           5.0670     1.5830    -0.3620 o          1 P2G      -0.911167
     19 O1           3.1680     3.1880     0.2900 o          1 P2G      -0.911167
     20 O7           4.2920     1.7300     2.0880 o          1 P2G      -0.911167
     21 O8           3.1750    -0.7290     0.5260 os         1 P2G      -0.397000
     22 C3           2.0560    -1.5570     0.6830 c5         1 P2G       0.100300
     23 C9           1.5640    -2.2330    -0.6070 c5         1 P2G       0.126300
     24 C10          1.8990    -3.7020    -0.6590 c3         1 P2G       0.165600
     25 O5           1.4520    -4.2400    -1.8780 oh         1 P2G      -0.712000
     26 HN1         -5.4630     1.9360    -0.6450 hn         1 P2G       0.302500
     27 HN21        -2.6970     2.9150    -2.5060 hn         1 P2G       0.505500
     28 HN22        -4.3630     3.2040    -2.1760 hn         1 P2G       0.505500
     29 H8          -1.4720    -2.4300     1.7880 h5         1 P2G       0.060100
     30 H1          -0.0320     0.0010    -0.8040 h2         1 P2G       0.110700
     31 H2           0.4870    -0.7820     2.0440 h1         1 P2G       0.063700
     32 H6           2.3740     0.6150    -0.8180 h2         1 P2G      -0.009300
     33 H3           2.2610    -2.2950     1.4630 h1         1 P2G       0.054700
     34 H4           2.0050    -1.7240    -1.4760 h1         1 P2G       0.083700
     35 H5'1         2.9870    -3.7940    -0.5420 h1         1 P2G       0.022700
     36 H5'2         1.4410    -4.2010     0.2060 h1         1 P2G       0.022700
     37 H5           1.6520    -5.1800    -1.8820 ho         1 P2G       0.479000
@<TRIPOS>BOND
     1     1     2 2   
     2     2     3 1   
     3     2     8 1   
     4     3     4 1   
     5     3    26 1   
     6     4     5 1   
     7     4     6 2   
     8     5    27 1   
     9     5    28 1   
    10     6     7 1   
    11     7     8 2   
    12     7    11 1   
    13     8     9 1   
    14     9    10 2   
    15    10    11 1   
    16    10    29 1   
    17    11    12 1   
    18    12    13 1   
    19    12    14 1   
    20    12    30 1   
    21    13    23 1   
    22    14    15 1   
    23    14    22 1   
    24    14    31 1   
    25    15    16 1   
    26    16    17 1   
    27    16    21 1   
    28    16    32 1   
    29    17    18 1   
    30    17    19 1   
    31    17    20 1   
    32    21    22 1   
    33    22    23 1   
    34    22    33 1   
    35    23    24 1   
    36    23    34 1   
    37    24    25 1   
    38    24    35 1   
    39    24    36 1   
    40    25    37 1   
@<TRIPOS>SUBSTRUCTURE
     1 P2G         1 TEMP              0 ****  ****    0 ROOT
