@<TRIPOS>MOLECULE
P2L
   34    35     1     0     0
SMALL
No Charge or Current Charge


@<TRIPOS>ATOM
      1 C15         -1.8100    -0.2220     0.5710 c6         1 P2L       0.235500
      2 C17         -2.4280     0.4950    -0.6720 c6         1 P2L       0.140800
      3 C22          0.7270    -0.0860     0.2440 cc         1 P2L       0.156400
      4 C01         -4.3540     1.7710    -1.5510 c3         1 P2L       0.153100
      5 N05         -3.8090     1.0040    -0.4090 n3         1 P2L      -0.715600
      6 C06         -4.7190    -0.0920     0.0240 c6         1 P2L       0.161800
      7 C09         -4.1770    -0.8180     1.2810 c6         1 P2L      -0.073400
      8 C12         -2.7460    -1.3610     1.0410 c6         1 P2L      -0.088400
      9 N20         -0.4780    -0.7860     0.2590 nu         1 P2L      -0.813200
     10 C23          0.7700     1.3400     0.5260 cc         1 P2L       0.305500
     11 N25          1.8530     2.1200     0.5420 nd         1 P2L      -0.397300
     12 N26          3.0330     1.4280     0.2480 n          1 P2L      -0.131800
     13 C27          4.2430     2.2790     0.2620 c3         1 P2L       0.099300
     14 C31          3.1890     0.0470    -0.0520 c          1 P2L       0.566200
     15 O32          4.2800    -0.4590    -0.2970 o          1 P2L      -0.537000
     16 C33          1.9170    -0.7180    -0.0400 cd         1 P2L      -0.159200
     17 Cl1          2.0170    -2.4270    -0.3990 cl         1 P2L      -0.164000
     18 H1          -1.7370     0.5080     1.3910 h1         1 P2L       0.074700
     19 H2          -1.7710     1.3270    -0.9610 h1         1 P2L       0.040200
     20 H3          -2.4420    -0.2090    -1.5180 h1         1 P2L       0.040200
     21 H4          -4.4590     1.1320    -2.4380 h1         1 P2L       0.034033
     22 H5          -5.3420     2.1830    -1.3050 h1         1 P2L       0.034033
     23 H6          -3.6920     2.6090    -1.8060 h1         1 P2L       0.034033
     24 H8          -5.7180     0.3100     0.2530 h1         1 P2L       0.035700
     25 H9          -4.8440    -0.8250    -0.7870 h1         1 P2L       0.035700
     26 H10         -4.1740    -0.1230     2.1320 hc         1 P2L       0.053700
     27 H11         -4.8500    -1.6420     1.5520 hc         1 P2L       0.053700
     28 H12         -2.7800    -2.1580     0.2860 hc         1 P2L       0.050200
     29 H13         -2.3580    -1.8130     1.9640 hc         1 P2L       0.050200
     30 H14         -0.1280     1.8950     0.7540 h4         1 P2L       0.050800
     31 H15          3.9860     3.3180     0.5050 h1         1 P2L       0.057367
     32 H16          4.9490     1.9040     1.0130 h1         1 P2L       0.057367
     33 H17          4.7210     2.2560    -0.7250 h1         1 P2L       0.057367
     34 H7          -0.4060    -1.7850     0.0520 hn         1 P2L       0.503000
@<TRIPOS>BOND
     1     1     2 1   
     2     1     8 1   
     3     1     9 1   
     4     1    18 1   
     5     2     5 1   
     6     2    19 1   
     7     2    20 1   
     8     3     9 1   
     9     3    10 1   
    10     3    16 2   
    11     4     5 1   
    12     4    21 1   
    13     4    22 1   
    14     4    23 1   
    15     5     6 1   
    16     6     7 1   
    17     6    24 1   
    18     6    25 1   
    19     7     8 1   
    20     7    26 1   
    21     7    27 1   
    22     8    28 1   
    23     8    29 1   
    24     9    34 1   
    25    10    11 2   
    26    10    30 1   
    27    11    12 1   
    28    12    13 1   
    29    12    14 1   
    30    13    31 1   
    31    13    32 1   
    32    13    33 1   
    33    14    15 2   
    34    14    16 1   
    35    16    17 1   
@<TRIPOS>SUBSTRUCTURE
     1 P2L         1 TEMP              0 ****  ****    0 ROOT
