@<TRIPOS>MOLECULE
P2L
   34    35     1     0     0
SMALL
abcg2


@<TRIPOS>ATOM
      1 C15         -1.8050    -0.2070     0.5600 c6         1 P2L       0.235500
      2 C17         -2.4130     0.4410    -0.6840 c6         1 P2L       0.140800
      3 C22          0.6590    -0.0840     0.2350 cc         1 P2L       0.156400
      4 C01         -4.2550     1.7100    -1.5230 c3         1 P2L       0.153100
      5 N05         -3.7310     0.9680    -0.3990 n3         1 P2L      -0.715600
      6 C06         -4.6380    -0.0840     0.0210 c6         1 P2L       0.161800
      7 C09         -4.1290    -0.7630     1.2820 c6         1 P2L      -0.073400
      8 C12         -2.7210    -1.3070     1.0790 c6         1 P2L      -0.088400
      9 N20         -0.4950    -0.7620     0.2790 nu         1 P2L      -0.813200
     10 C23          0.7260     1.3150     0.5540 cc         1 P2L       0.305500
     11 N25          1.8230     1.9920     0.5590 nd         1 P2L      -0.397300
     12 N26          2.9620     1.4050     0.2550 n          1 P2L      -0.131800
     13 C27          4.1530     2.2370     0.2950 c3         1 P2L       0.099300
     14 C31          3.0950     0.0720    -0.1010 c          1 P2L       0.566200
     15 O32          4.1960    -0.3890    -0.3830 o          1 P2L      -0.537000
     16 C33          1.8690    -0.6570    -0.0950 cd         1 P2L      -0.159200
     17 CL1          1.9640    -2.3250    -0.5140 cl         1 P2L      -0.164000
     18 H1          -1.7090     0.5520     1.3430 h1         1 P2L       0.074700
     19 H2          -1.7760     1.2610    -1.0280 h1         1 P2L       0.040200
     20 H3          -2.4320    -0.3080    -1.4960 h1         1 P2L       0.040200
     21 H4          -4.3780     1.0970    -2.4300 h1         1 P2L       0.034033
     22 H5          -5.2300     2.1310    -1.2710 h1         1 P2L       0.034033
     23 H6          -3.5900     2.5390    -1.7710 h1         1 P2L       0.034033
     24 H8          -5.6210     0.3550     0.2060 h1         1 P2L       0.035700
     25 H9          -4.7700    -0.8420    -0.7730 h1         1 P2L       0.035700
     26 H10         -4.1330    -0.0460     2.1070 hc         1 P2L       0.053700
     27 H11         -4.8050    -1.5740     1.5610 hc         1 P2L       0.053700
     28 H12         -2.7490    -2.1240     0.3480 hc         1 P2L       0.050200
     29 H13         -2.3230    -1.7200     2.0090 hc         1 P2L       0.050200
     30 H14         -0.1610     1.8770     0.8100 h4         1 P2L       0.050800
     31 H15          3.8530     3.2270     0.6210 h1         1 P2L       0.057367
     32 H16          4.8820     1.8330     0.9940 h1         1 P2L       0.057367
     33 H17          4.6130     2.3040    -0.6900 h1         1 P2L       0.057367
     34 H7          -0.4710    -1.7250    -0.0210 hn         1 P2L       0.503000
@<TRIPOS>BOND
     1     1     2 1   
     2     1     8 1   
     3     1     9 1   
     4     1    18 1   
     5     2     5 1   
     6     2    19 1   
     7     2    20 1   
     8     3     9 1   
     9     3    10 1   
    10     3    16 2   
    11     4     5 1   
    12     4    21 1   
    13     4    22 1   
    14     4    23 1   
    15     5     6 1   
    16     6     7 1   
    17     6    24 1   
    18     6    25 1   
    19     7     8 1   
    20     7    26 1   
    21     7    27 1   
    22     8    28 1   
    23     8    29 1   
    24     9    34 1   
    25    10    11 2   
    26    10    30 1   
    27    11    12 1   
    28    12    13 1   
    29    12    14 1   
    30    13    31 1   
    31    13    32 1   
    32    13    33 1   
    33    14    15 2   
    34    14    16 1   
    35    16    17 1   
@<TRIPOS>SUBSTRUCTURE
     1 P2L         1 TEMP              0 ****  ****    0 ROOT
