@<TRIPOS>MOLECULE
P2M
   35    37     1     0     0
SMALL
abcg2


@<TRIPOS>ATOM
      1 S            0.4720    -2.0390     0.8300 sy         1 P2M       1.153600
      2 C1           3.1370     0.4820    -1.8730 ca         1 P2M      -0.041000
      3 N1          -1.0080    -1.3280     0.7570 n7         1 P2M      -0.873300
      4 O1           0.8930    -1.9940     2.2200 o          1 P2M      -0.532500
      5 C2           2.6050     1.0950    -0.7140 ca         1 P2M      -0.062000
      6 N2          -3.9200    -0.3890    -0.3090 nb         1 P2M      -0.647000
      7 O2           0.3480    -3.3210     0.1600 o          1 P2M      -0.532500
      8 C3           1.8100     0.3370     0.1910 ca         1 P2M       0.040000
      9 C4           1.5520    -1.0230    -0.1550 ca         1 P2M      -0.298500
     10 C5           2.0740    -1.5870    -1.2900 ca         1 P2M       0.011000
     11 C6           2.8890    -0.8300    -2.1510 ca         1 P2M      -0.138000
     12 C7           1.3230     0.9880     1.3500 ca         1 P2M      -0.135000
     13 C8           1.5820     2.3140     1.5720 ca         1 P2M      -0.079000
     14 C9           2.3530     3.0640     0.6660 ca         1 P2M      -0.115000
     15 C10          2.8600     2.4590    -0.4500 ca         1 P2M      -0.085000
     16 C11         -1.6490    -1.1860    -0.5550 c3         1 P2M       0.161500
     17 C12         -2.6460    -0.0610    -0.4950 ca         1 P2M       0.322300
     18 C13         -4.8150     0.5890    -0.2280 ca         1 P2M       0.339900
     19 C14         -4.4870     1.9330    -0.3180 ca         1 P2M      -0.156000
     20 C15         -3.1570     2.2730    -0.5120 ca         1 P2M      -0.072000
     21 C16         -2.2190     1.2580    -0.6040 ca         1 P2M      -0.159000
     22 HN1         -1.1060    -0.5340     1.3800 hn         1 P2M       0.490000
     23 H5           1.8620    -2.6160    -1.5390 ha         1 P2M       0.146000
     24 H6           3.2990    -1.2950    -3.0370 ha         1 P2M       0.124000
     25 H7           0.7680     0.4490     2.1030 ha         1 P2M       0.126000
     26 H8           1.1950     2.7860     2.4650 ha         1 P2M       0.119000
     27 H9           2.5490     4.1100     0.8590 ha         1 P2M       0.119000
     28 H10          3.4680     3.0180    -1.1500 ha         1 P2M       0.116000
     29 H11         -0.9120    -0.9740    -1.3370 h1         1 P2M       0.070700
     30 H11A        -2.1580    -2.1140    -0.8130 h1         1 P2M       0.070700
     31 H13         -5.8460     0.2870    -0.0820 h4         1 P2M       0.024100
     32 H14         -5.2570     2.6880    -0.2440 ha         1 P2M       0.127000
     33 H15         -2.8560     3.3090    -0.5960 ha         1 P2M       0.122000
     34 H16         -1.1720     1.4830    -0.7670 ha         1 P2M       0.126000
     35 H1           3.7480     1.0770    -2.5410 ha         1 P2M       0.117000
@<TRIPOS>BOND
     1     1     3 1   
     2     1     4 2   
     3     1     7 2   
     4     1     9 1   
     5     2     5 ar  
     6     2    11 ar  
     7     2    35 1   
     8     3    16 1   
     9     3    22 1   
    10     5     8 ar  
    11     5    15 ar  
    12     6    17 ar  
    13     6    18 ar  
    14     8     9 ar  
    15     8    12 ar  
    16     9    10 ar  
    17    10    11 ar  
    18    10    23 1   
    19    11    24 1   
    20    12    13 ar  
    21    12    25 1   
    22    13    14 ar  
    23    13    26 1   
    24    14    15 ar  
    25    14    27 1   
    26    15    28 1   
    27    16    17 1   
    28    16    29 1   
    29    16    30 1   
    30    17    21 ar  
    31    18    19 ar  
    32    18    31 1   
    33    19    20 ar  
    34    19    32 1   
    35    20    21 ar  
    36    20    33 1   
    37    21    34 1   
@<TRIPOS>SUBSTRUCTURE
     1 P2M         1 TEMP              0 ****  ****    0 ROOT
