@<TRIPOS>MOLECULE
P2M
   35    37     1     0     0
SMALL
No Charge or Current Charge


@<TRIPOS>ATOM
      1 S            0.4120    -1.7730     0.1040 sy         1 P2M       1.153600
      2 C1           3.9740     0.7280    -1.4960 ca         1 P2M      -0.041000
      3 N1          -0.8450    -0.6840    -0.0210 n7         1 P2M      -0.873300
      4 O1           0.5680    -2.0460     1.5350 o          1 P2M      -0.532500
      5 C2           3.3380     1.1520    -0.3160 ca         1 P2M      -0.062000
      6 N2          -4.0420     0.1420     0.8620 nb         1 P2M      -0.647000
      7 O2           0.1410    -2.8300    -0.8730 o          1 P2M      -0.532500
      8 C3           2.2350     0.4280     0.2110 ca         1 P2M       0.040000
      9 C4           1.7850    -0.7430    -0.4710 ca         1 P2M      -0.298500
     10 C5           2.4380    -1.1450    -1.6590 ca         1 P2M       0.011000
     11 C6           3.5220    -0.4150    -2.1650 ca         1 P2M      -0.138000
     12 C7           1.6260     0.9150     1.3950 ca         1 P2M      -0.135000
     13 C8           2.1060     2.0710     2.0340 ca         1 P2M      -0.079000
     14 C9           3.2000     2.7680     1.5040 ca         1 P2M      -0.115000
     15 C10          3.8140     2.3100     0.3300 ca         1 P2M      -0.085000
     16 C11         -2.2270    -1.2270    -0.1190 c3         1 P2M       0.161500
     17 C12         -3.3030    -0.1360    -0.2430 ca         1 P2M       0.322300
     18 C13         -4.9920     1.1020     0.7700 ca         1 P2M       0.339900
     19 C14         -5.2450     1.8150    -0.4140 ca         1 P2M      -0.156000
     20 C15         -4.4860     1.5310    -1.5600 ca         1 P2M      -0.072000
     21 C16         -3.4990     0.5360    -1.4670 ca         1 P2M      -0.159000
     22 HN1         -0.5960    -0.1760    -0.8680 hn         1 P2M       0.490000
     23 H5           2.1170    -2.0340    -2.2020 ha         1 P2M       0.146000
     24 H6           4.0150    -0.7400    -3.0780 ha         1 P2M       0.124000
     25 H7           0.7700     0.4220     1.8420 ha         1 P2M       0.126000
     26 H8           1.6240     2.4290     2.9420 ha         1 P2M       0.119000
     27 H9           3.5690     3.6630     2.0000 ha         1 P2M       0.119000
     28 H10          4.6600     2.8580    -0.0780 ha         1 P2M       0.116000
     29 H11         -2.3240    -1.8910    -0.9890 h1         1 P2M       0.070700
     30 H11A        -2.4550    -1.8360     0.7670 h1         1 P2M       0.070700
     31 H13         -5.5680     1.3030     1.6730 h4         1 P2M       0.024100
     32 H14         -6.0200     2.5760    -0.4340 ha         1 P2M       0.127000
     33 H15         -4.6580     2.0650    -2.4920 ha         1 P2M       0.122000
     34 H16         -2.8910     0.2860    -2.3330 ha         1 P2M       0.126000
     35 H1           4.8170     1.2850    -1.8980 ha         1 P2M       0.117000
@<TRIPOS>BOND
     1     1     3 1   
     2     1     4 2   
     3     1     7 2   
     4     1     9 1   
     5     2     5 ar  
     6     2    11 ar  
     7     2    35 1   
     8     3    16 1   
     9     3    22 1   
    10     5     8 ar  
    11     5    15 ar  
    12     6    17 ar  
    13     6    18 ar  
    14     8     9 ar  
    15     8    12 ar  
    16     9    10 ar  
    17    10    11 ar  
    18    10    23 1   
    19    11    24 1   
    20    12    13 ar  
    21    12    25 1   
    22    13    14 ar  
    23    13    26 1   
    24    14    15 ar  
    25    14    27 1   
    26    15    28 1   
    27    16    17 1   
    28    16    29 1   
    29    16    30 1   
    30    17    21 ar  
    31    18    19 ar  
    32    18    31 1   
    33    19    20 ar  
    34    19    32 1   
    35    20    21 ar  
    36    20    33 1   
    37    21    34 1   
@<TRIPOS>SUBSTRUCTURE
     1 P2M         1 TEMP              0 ****  ****    0 ROOT
