@<TRIPOS>MOLECULE
P2N
   42    43     1     0     0
SMALL
bcc


@<TRIPOS>ATOM
      1 C1          -0.4250     1.3800    -0.6090 c          1 P2N       0.668700
      2 C2           0.9060     0.9580    -0.1080 ca         1 P2N      -0.262600
      3 C3           1.9590     1.8790    -0.0030 ca         1 P2N       0.241100
      4 C4           3.2450     1.4330     0.2830 ca         1 P2N      -0.283000
      5 C5           3.4900     0.0890     0.4960 ca         1 P2N       0.214100
      6 C6           2.4260    -0.8200     0.4450 ca         1 P2N      -0.052600
      7 C7           1.1390    -0.4020     0.1570 ca         1 P2N       0.073700
      8 C8          -0.0000    -1.3750     0.2100 c3         1 P2N      -0.156100
      9 C9          -0.2360    -2.1330    -1.0770 c          1 P2N       0.591100
     10 C10         -1.5000    -2.9550    -1.1460 c3         1 P2N      -0.174400
     11 C11         -2.7810    -2.1500    -0.8640 c3         1 P2N      -0.077400
     12 C12         -3.2850    -2.2210     0.5760 c3         1 P2N      -0.072400
     13 C13         -4.3300    -1.1380     0.8710 c3         1 P2N      -0.041200
     14 C14         -3.7250     0.2140     1.1040 c2         1 P2N      -0.162200
     15 C15         -3.7370     1.2250     0.2390 c2         1 P2N      -0.167200
     16 C16         -3.2110     2.6010     0.5120 c3         1 P2N      -0.066200
     17 C17         -2.1050     3.0860    -0.4140 c3         1 P2N       0.150400
     18 O1          -0.8290     2.5210    -0.0530 os         1 P2N      -0.456900
     19 O2          -1.0520     0.7800    -1.4420 o          1 P2N      -0.514000
     20 O3           1.8260     3.1960    -0.2070 oh         1 P2N      -0.493100
     21 O4           4.7050    -0.3900     0.7700 oh         1 P2N      -0.466100
     22 CL1          2.7760    -2.4840     0.7640 cl         1 P2N      -0.082400
     23 O5           0.5680    -2.1060    -1.9790 o          1 P2N      -0.502100
     24 H4           4.0540     2.1520     0.3380 ha         1 P2N       0.154000
     25 H8C1        -0.9200    -0.8790     0.5170 hc         1 P2N       0.081200
     26 H8C2         0.1780    -2.1240     0.9880 hc         1 P2N       0.081200
     27 H101        -1.4110    -3.7730    -0.4210 hc         1 P2N       0.064700
     28 H102        -1.5410    -3.4170    -2.1330 hc         1 P2N       0.064700
     29 H111        -3.5720    -2.5290    -1.5150 hc         1 P2N       0.055200
     30 H112        -2.6360    -1.1090    -1.1570 hc         1 P2N       0.055200
     31 H121        -2.4650    -2.1300     1.2940 hc         1 P2N       0.038700
     32 H122        -3.7180    -3.2100     0.7490 hc         1 P2N       0.038700
     33 H131        -4.8970    -1.4240     1.7610 hc         1 P2N       0.046200
     34 H132        -5.0480    -1.0940     0.0460 hc         1 P2N       0.046200
     35 H14         -3.2470     0.3580     2.0710 ha         1 P2N       0.115000
     36 H15         -4.2050     1.0840    -0.7330 ha         1 P2N       0.124000
     37 H161        -2.8810     2.6940     1.5490 hc         1 P2N       0.056700
     38 H162        -4.0320     3.3150     0.3880 hc         1 P2N       0.056700
     39 H171        -1.9690     4.1590    -0.2930 h1         1 P2N       0.063200
     40 H172        -2.3320     2.8840    -1.4610 h1         1 P2N       0.063200
     41 H3           0.8930     3.4500    -0.2250 ho         1 P2N       0.452000
     42 HA           5.3550     0.3230     0.7830 ho         1 P2N       0.435000
@<TRIPOS>BOND
     1     1     2 1   
     2     1    18 1   
     3     1    19 2   
     4     2     3 ar  
     5     2     7 ar  
     6     3     4 ar  
     7     3    20 1   
     8     4     5 ar  
     9     4    24 1   
    10     5     6 ar  
    11     5    21 1   
    12     6     7 ar  
    13     6    22 1   
    14     7     8 1   
    15     8     9 1   
    16     8    25 1   
    17     8    26 1   
    18     9    10 1   
    19     9    23 2   
    20    10    11 1   
    21    10    27 1   
    22    10    28 1   
    23    11    12 1   
    24    11    29 1   
    25    11    30 1   
    26    12    13 1   
    27    12    31 1   
    28    12    32 1   
    29    13    14 1   
    30    13    33 1   
    31    13    34 1   
    32    14    15 2   
    33    14    35 1   
    34    15    16 1   
    35    15    36 1   
    36    16    17 1   
    37    16    37 1   
    38    16    38 1   
    39    17    18 1   
    40    17    39 1   
    41    17    40 1   
    42    20    41 1   
    43    21    42 1   
@<TRIPOS>SUBSTRUCTURE
     1 P2N         1 TEMP              0 ****  ****    0 ROOT
