@<TRIPOS>MOLECULE
P2N
   42    43     1     0     0
SMALL
No Charge or Current Charge


@<TRIPOS>ATOM
      1 C1          -0.4210     1.4330    -0.5410 c          1 P2N       0.619700
      2 C2           0.9530     0.9700    -0.1290 ca         1 P2N      -0.262600
      3 C3           2.0220     1.8910    -0.1130 ca         1 P2N       0.241100
      4 C4           3.3250     1.4740     0.1670 ca         1 P2N      -0.265000
      5 C5           3.5890     0.1300     0.4450 ca         1 P2N       0.214100
      6 C6           2.5370    -0.8070     0.4660 ca         1 P2N       0.039000
      7 C7           1.2090    -0.3920     0.1930 ca         1 P2N       0.073700
      8 C8           0.0660    -1.4060     0.3000 c3         1 P2N      -0.156100
      9 C9          -0.2680    -2.1490    -0.9990 c          1 P2N       0.591100
     10 C10         -1.4650    -3.1140    -0.9500 c3         1 P2N      -0.174400
     11 C11         -2.8170    -2.3480    -0.9350 c3         1 P2N      -0.077400
     12 C12         -3.4860    -2.2800     0.4630 c3         1 P2N      -0.072400
     13 C13         -4.4760    -1.1080     0.6270 c3         1 P2N      -0.041200
     14 C14         -3.7840     0.1910     1.0000 c2         1 P2N      -0.212200
     15 C15         -3.7060     1.2890     0.2320 c2         1 P2N      -0.217200
     16 C16         -3.1090     2.6180     0.6680 c3         1 P2N      -0.066200
     17 C17         -2.0560     3.2210    -0.2970 c3         1 P2N       0.173600
     18 O1          -0.7530     2.6590    -0.0180 os         1 P2N      -0.480100
     19 O2          -1.1270     0.8140    -1.3200 o          1 P2N      -0.465000
     20 O3           1.8210     3.2090    -0.3780 oh         1 P2N      -0.532100
     21 O4           4.8750    -0.2540     0.7060 oh         1 P2N      -0.505100
     22 Cl1          2.8990    -2.5060     0.8270 cl         1 P2N      -0.174000
     23 O5           0.3340    -1.9380    -2.0450 o          1 P2N      -0.502100
     24 H4           4.1290     2.2050     0.1620 ha         1 P2N       0.136000
     25 H8C1        -0.8560    -0.9510     0.6750 hc         1 P2N       0.081200
     26 H8C2         0.2080    -2.1520     1.0880 hc         1 P2N       0.081200
     27 H101        -1.4100    -3.7000    -0.0240 hc         1 P2N       0.064700
     28 H102        -1.4300    -3.7780    -1.8220 hc         1 P2N       0.064700
     29 H111        -3.5150    -2.8390    -1.6250 hc         1 P2N       0.055200
     30 H112        -2.6730    -1.3350    -1.3310 hc         1 P2N       0.055200
     31 H121        -2.7300    -2.2140     1.2550 hc         1 P2N       0.038700
     32 H122        -4.0200    -3.2240     0.6320 hc         1 P2N       0.038700
     33 H131        -5.1940    -1.3650     1.4160 hc         1 P2N       0.046200
     34 H132        -5.0650    -0.9930    -0.2920 hc         1 P2N       0.046200
     35 H14         -3.3760     0.2010     2.0120 ha         1 P2N       0.165000
     36 H15         -4.1320     1.2910    -0.7740 ha         1 P2N       0.174000
     37 H161        -2.6720     2.5430     1.6710 hc         1 P2N       0.056700
     38 H162        -3.9250     3.3460     0.7550 hc         1 P2N       0.056700
     39 H171        -2.0210     4.3030    -0.1150 h1         1 P2N       0.063200
     40 H172        -2.3550     3.0800    -1.3440 h1         1 P2N       0.063200
     41 H3           0.8520     3.3680    -0.2850 ho         1 P2N       0.491000
     42 HA           5.4500     0.5370     0.6450 ho         1 P2N       0.474000
@<TRIPOS>BOND
     1     1     2 1   
     2     1    18 1   
     3     1    19 2   
     4     2     3 ar  
     5     2     7 ar  
     6     3     4 ar  
     7     3    20 1   
     8     4     5 ar  
     9     4    24 1   
    10     5     6 ar  
    11     5    21 1   
    12     6     7 ar  
    13     6    22 1   
    14     7     8 1   
    15     8     9 1   
    16     8    25 1   
    17     8    26 1   
    18     9    10 1   
    19     9    23 2   
    20    10    11 1   
    21    10    27 1   
    22    10    28 1   
    23    11    12 1   
    24    11    29 1   
    25    11    30 1   
    26    12    13 1   
    27    12    31 1   
    28    12    32 1   
    29    13    14 1   
    30    13    33 1   
    31    13    34 1   
    32    14    15 2   
    33    14    35 1   
    34    15    16 1   
    35    15    36 1   
    36    16    17 1   
    37    16    37 1   
    38    16    38 1   
    39    17    18 1   
    40    17    39 1   
    41    17    40 1   
    42    20    41 1   
    43    21    42 1   
@<TRIPOS>SUBSTRUCTURE
     1 P2N         1 TEMP              0 ****  ****    0 ROOT
