@<TRIPOS>MOLECULE
P2O
   16    16     1     0     0
SMALL
abcg2


@<TRIPOS>ATOM
      1 C13          2.0150     1.0620    -0.3350 c5         1 P2O       0.144600
      2 C9          -1.2420     0.0420     1.0420 c3         1 P2O       0.201100
      3 C11          0.8060    -0.8230     0.0280 c          1 P2O       0.691100
      4 C8          -2.2380     0.2050    -0.0180 c1         1 P2O      -0.191100
      5 C7          -3.0420     0.3510    -0.8990 c1         1 P2O      -0.209000
      6 C14          0.6130     1.4760     0.0970 c5         1 P2O       0.056000
      7 O11          0.5320    -1.9980     0.0500 o          1 P2O      -0.523000
      8 N10          0.1080     0.2060     0.5680 n          1 P2O      -0.431800
      9 O12          1.9120    -0.3500    -0.5610 os         1 P2O      -0.414100
     10 H131         2.7520     1.2400     0.4500 h1         1 P2O       0.068700
     11 H132         2.3430     1.5440    -1.2520 h1         1 P2O       0.068700
     12 H91         -1.3390    -0.9440     1.4980 h1         1 P2O       0.079700
     13 H92         -1.4270     0.7720     1.8330 h1         1 P2O       0.079700
     14 H7          -3.7570     0.4810    -1.6790 ha         1 P2O       0.257000
     15 H141         0.6290     2.2240     0.8890 h1         1 P2O       0.061200
     16 H142         0.0150     1.8600    -0.7350 h1         1 P2O       0.061200
@<TRIPOS>BOND
     1     1     6 1   
     2     1     9 1   
     3     1    10 1   
     4     1    11 1   
     5     2     4 1   
     6     2     8 1   
     7     2    12 1   
     8     2    13 1   
     9     3     7 2   
    10     3     8 1   
    11     3     9 1   
    12     4     5 3   
    13     5    14 1   
    14     6     8 1   
    15     6    15 1   
    16     6    16 1   
@<TRIPOS>SUBSTRUCTURE
     1 P2O         1 TEMP              0 ****  ****    0 ROOT
