@<TRIPOS>MOLECULE
P2O
   16    16     1     0     0
SMALL
No Charge or Current Charge


@<TRIPOS>ATOM
      1 C13          2.0960     1.0510    -0.3210 c5         1 P2O       0.144600
      2 C9          -1.2880     0.0740     0.9820 c3         1 P2O       0.201100
      3 C11          0.8110    -0.8380    -0.0160 c          1 P2O       0.691100
      4 C8          -2.3570     0.1580    -0.0230 c1         1 P2O      -0.191100
      5 C7          -3.2170     0.2310    -0.8720 c1         1 P2O      -0.209000
      6 C14          0.6900     1.5380     0.1300 c5         1 P2O       0.056000
      7 O11          0.4890    -2.0130     0.0600 o          1 P2O      -0.523000
      8 N10          0.0510     0.2480     0.3930 n          1 P2O      -0.431800
      9 O12          1.9820    -0.3800    -0.5400 os         1 P2O      -0.414100
     10 H131         2.8400     1.2230     0.4680 h1         1 P2O       0.068700
     11 H132         2.4410     1.5440    -1.2390 h1         1 P2O       0.068700
     12 H91         -1.3490    -0.8950     1.4950 h1         1 P2O       0.079700
     13 H92         -1.4490     0.8550     1.7370 h1         1 P2O       0.079700
     14 H7          -3.9690     0.2970    -1.6340 ha         1 P2O       0.257000
     15 H141         0.7380     2.1710     1.0260 h1         1 P2O       0.061200
     16 H142         0.1710     2.0850    -0.6690 h1         1 P2O       0.061200
@<TRIPOS>BOND
     1     1     6 1   
     2     1     9 1   
     3     1    10 1   
     4     1    11 1   
     5     2     4 1   
     6     2     8 1   
     7     2    12 1   
     8     2    13 1   
     9     3     7 2   
    10     3     8 1   
    11     3     9 1   
    12     4     5 3   
    13     5    14 1   
    14     6     8 1   
    15     6    15 1   
    16     6    16 1   
@<TRIPOS>SUBSTRUCTURE
     1 P2O         1 TEMP              0 ****  ****    0 ROOT
