@<TRIPOS>MOLECULE
P2Q
   49    50     1     0     0
SMALL
abcg2


@<TRIPOS>ATOM
      1 C           37.3790     4.8060    56.5760 c          1 P2Q       0.721000
      2 N           37.1750     3.1400    58.4060 n8         1 P2Q      -1.007200
      3 O           37.4610     5.6470    57.4930 o          1 P2Q      -0.728500
      4 C1          35.0820    -1.2530    60.2140 c3         1 P2Q       0.120700
      5 C2          35.4070     0.1380    60.6810 c2         1 P2Q      -0.188200
      6 C3          36.5230     0.4680    61.3190 c2         1 P2Q      -0.209200
      7 C4          36.8230     1.8590    61.7620 c3         1 P2Q       0.193800
      8 C5          34.0490    -1.8190    61.1630 c          1 P2Q       0.572900
      9 C6          37.2630     2.9910    63.8090 ca         1 P2Q       0.146100
     10 C7          37.4770     4.2090    63.1690 ca         1 P2Q      -0.172500
     11 C8          37.8060     5.3320    63.9220 ca         1 P2Q      -0.076500
     12 C9          37.9220     5.2610    65.3000 ca         1 P2Q      -0.159000
     13 CA          37.4110     3.3090    56.9790 c3         1 P2Q       0.025500
     14 CB          36.3850     2.4950    56.1790 c3         1 P2Q      -0.003100
     15 CG          36.4000     1.0320    56.5260 ca         1 P2Q      -0.101300
     16 CZ          36.4580    -1.6790    57.2950 ca         1 P2Q       0.122100
     17 C10         37.7040     4.0410    65.9330 ca         1 P2Q      -0.076500
     18 C11         37.3780     2.9140    65.1990 ca         1 P2Q      -0.172500
     19 NAS         34.5870    -1.2400    58.8550 nu         1 P2Q      -0.933200
     20 OAT         36.9400     1.8450    63.1770 os         1 P2Q      -0.358100
     21 OAZ         36.5560    -2.9860    57.6150 oh         1 P2Q      -0.546100
     22 CD1         35.5080     0.5080    57.4500 ca         1 P2Q      -0.020000
     23 CD2         37.3330     0.1460    55.9750 ca         1 P2Q       0.162100
     24 CE1         35.5100    -0.8210    57.8620 ca         1 P2Q       0.105000
     25 CE2         37.3530    -1.1930    56.3470 ca         1 P2Q      -0.251000
     26 OXT         37.3090     5.0420    55.3530 o          1 P2Q      -0.728500
     27 H           37.5510     2.2520    58.7120 hn         1 P2Q       0.377500
     28 HNA         37.6800     3.8620    58.9020 hn         1 P2Q       0.377500
     29 H1          35.9790    -1.8800    60.3660 h1         1 P2Q       0.033700
     30 H2          34.6470     0.8900    60.4830 ha         1 P2Q       0.199000
     31 H3          37.2840    -0.2830    61.5090 ha         1 P2Q       0.171000
     32 H4          37.7630     2.1970    61.3080 h1         1 P2Q       0.058700
     33 H4A         36.0320     2.5450    61.4390 h1         1 P2Q       0.058700
     34 H5          34.3870    -1.8390    62.2140 h4         1 P2Q      -0.007800
     35 H7          37.3930     4.3060    62.0940 ha         1 P2Q       0.128000
     36 H8          37.9710     6.2730    63.4120 ha         1 P2Q       0.109500
     37 H9          38.1790     6.1390    65.8760 ha         1 P2Q       0.107000
     38 HA          38.4120     2.9500    56.6860 h1         1 P2Q       0.006700
     39 HB          35.3890     2.8940    56.3890 hc         1 P2Q       0.062700
     40 HBA         36.5670     2.6440    55.1160 hc         1 P2Q       0.062700
     41 H10         37.7900     3.9640    67.0100 ha         1 P2Q       0.109500
     42 H11         37.2090     1.9660    65.6940 ha         1 P2Q       0.128000
     43 HOAD        38.8030    -0.0590    54.7700 ho         1 P2Q       0.449000
     44 HNAS        34.0540    -2.0670    58.6210 hn         1 P2Q       0.449000
     45 HOAZ        35.8940    -3.2280    58.2720 ho         1 P2Q       0.450000
     46 HD1         34.7640     1.1650    57.8860 ha         1 P2Q       0.136000
     47 HE2         38.0750    -1.8720    55.9070 ha         1 P2Q       0.114000
     48 OAD         38.2060     0.6360    55.0690 oh         1 P2Q      -0.509100
     49 OC5         32.9650    -2.2220    60.8340 o          1 P2Q      -0.511100
@<TRIPOS>BOND
     1     1     3 1   
     2     1    13 1   
     3     1    26 1   
     4     2    13 1   
     5     2    27 1   
     6     2    28 1   
     7     4     5 1   
     8     4     8 1   
     9     4    19 1   
    10     4    29 1   
    11     5     6 2   
    12     5    30 1   
    13     6     7 1   
    14     6    31 1   
    15     7    20 1   
    16     7    32 1   
    17     7    33 1   
    18     8    34 1   
    19     8    49 2   
    20     9    10 ar  
    21     9    18 ar  
    22     9    20 1   
    23    10    11 ar  
    24    10    35 1   
    25    11    12 ar  
    26    11    36 1   
    27    12    17 ar  
    28    12    37 1   
    29    13    14 1   
    30    13    38 1   
    31    14    15 1   
    32    14    39 1   
    33    14    40 1   
    34    15    22 ar  
    35    15    23 ar  
    36    16    21 1   
    37    16    24 ar  
    38    16    25 ar  
    39    17    18 ar  
    40    17    41 1   
    41    18    42 1   
    42    19    24 1   
    43    19    44 1   
    44    21    45 1   
    45    22    24 ar  
    46    22    46 1   
    47    23    25 ar  
    48    23    48 1   
    49    25    47 1   
    50    43    48 1   
@<TRIPOS>SUBSTRUCTURE
     1 P2Q         1 TEMP              0 ****  ****    0 ROOT
