@<TRIPOS>MOLECULE
P2Q
   49    50     1     0     0
SMALL
No Charge or Current Charge


@<TRIPOS>ATOM
      1 C           36.8440     4.8240    55.4030 c          1 P2Q       0.721000
      2 N           36.3650     3.7690    57.7680 n8         1 P2Q      -1.007200
      3 O           37.7400     5.6560    55.4870 o          1 P2Q      -0.728500
      4 C1          34.8710    -1.3110    60.4100 c3         1 P2Q       0.120700
      5 C2          35.3670     0.0200    60.9430 c2         1 P2Q      -0.188200
      6 C3          36.6560     0.3390    61.1550 c2         1 P2Q      -0.209200
      7 C4          37.1560     1.6650    61.6800 c3         1 P2Q       0.193800
      8 C5          33.5440    -1.7710    61.1090 c          1 P2Q       0.572900
      9 C6          37.3390     2.7300    63.8980 ca         1 P2Q       0.146100
     10 C7          37.9040     3.9120    63.3700 ca         1 P2Q      -0.172500
     11 C8          38.2490     4.9710    64.2290 ca         1 P2Q      -0.076500
     12 C9          38.0310     4.8560    65.6120 ca         1 P2Q      -0.159000
     13 CA          36.9060     3.5650    56.3730 c3         1 P2Q       0.025500
     14 CB          36.2800     2.3000    55.7190 c3         1 P2Q      -0.003100
     15 CG          36.5500     1.0070    56.4980 ca         1 P2Q      -0.101300
     16 CZ          36.9970    -1.3760    57.9220 ca         1 P2Q       0.122100
     17 C10         37.4680     3.6820    66.1400 ca         1 P2Q      -0.076500
     18 C11         37.1240     2.6230    65.2820 ca         1 P2Q      -0.172500
     19 NAS         34.7570    -1.2070    58.9220 nu         1 P2Q      -0.933200
     20 OAT         36.9810     1.6570    63.1070 os         1 P2Q      -0.358100
     21 OAZ         37.1830    -2.5500    58.5780 oh         1 P2Q      -0.546100
     22 CD1         35.5490     0.4850    57.3450 ca         1 P2Q      -0.020000
     23 CD2         37.7800     0.3180    56.3750 ca         1 P2Q       0.162100
     24 CE1         35.7650    -0.7020    58.0700 ca         1 P2Q       0.105000
     25 CE2         37.9990    -0.8720    57.0840 ca         1 P2Q      -0.251000
     26 OXT         35.9190     4.9260    54.6050 o          1 P2Q      -0.728500
     27 H           36.5460     2.9240    58.3190 hn         1 P2Q       0.377500
     28 HNA         36.9180     4.4970    58.2360 hn         1 P2Q       0.377500
     29 H1          35.6160    -2.0770    60.6620 h1         1 P2Q       0.033700
     30 H2          34.5770     0.7440    61.1530 ha         1 P2Q       0.199000
     31 H3          37.4470    -0.3800    60.9410 ha         1 P2Q       0.171000
     32 H4          38.2150     1.7920    61.4190 h1         1 P2Q       0.058700
     33 H4A         36.5860     2.4850    61.2220 h1         1 P2Q       0.058700
     34 H5          33.6650    -2.5680    61.8760 h4         1 P2Q      -0.007800
     35 H7          38.0830     4.0270    62.3050 ha         1 P2Q       0.128000
     36 H8          38.6840     5.8820    63.8220 ha         1 P2Q       0.109500
     37 H9          38.2980     5.6760    66.2740 ha         1 P2Q       0.107000
     38 HA          37.9750     3.3490    56.5030 h1         1 P2Q       0.006700
     39 HB          35.2000     2.4540    55.6040 hc         1 P2Q       0.062700
     40 HBA         36.6700     2.2020    54.6990 hc         1 P2Q       0.062700
     41 H10         37.3000     3.5920    67.2120 ha         1 P2Q       0.109500
     42 H11         36.6890     1.7140    65.6910 ha         1 P2Q       0.128000
     43 HOAD        39.5260     0.1700    55.6100 ho         1 P2Q       0.449000
     44 HNAS        33.8100    -0.9660    58.6130 hn         1 P2Q       0.449000
     45 HOAZ        36.3230    -2.6880    59.0370 ho         1 P2Q       0.450000
     46 HD1         34.6040     1.0100    57.4510 ha         1 P2Q       0.136000
     47 HE2         38.9370    -1.4120    56.9830 ha         1 P2Q       0.114000
     48 OAD         38.7670     0.7870    55.5580 oh         1 P2Q      -0.509100
     49 OC5         32.4340    -1.3050    60.8550 o          1 P2Q      -0.511100
@<TRIPOS>BOND
     1     1     3 1   
     2     1    13 1   
     3     1    26 1   
     4     2    13 1   
     5     2    27 1   
     6     2    28 1   
     7     4     5 1   
     8     4     8 1   
     9     4    19 1   
    10     4    29 1   
    11     5     6 2   
    12     5    30 1   
    13     6     7 1   
    14     6    31 1   
    15     7    20 1   
    16     7    32 1   
    17     7    33 1   
    18     8    34 1   
    19     8    49 2   
    20     9    10 ar  
    21     9    18 ar  
    22     9    20 1   
    23    10    11 ar  
    24    10    35 1   
    25    11    12 ar  
    26    11    36 1   
    27    12    17 ar  
    28    12    37 1   
    29    13    14 1   
    30    13    38 1   
    31    14    15 1   
    32    14    39 1   
    33    14    40 1   
    34    15    22 ar  
    35    15    23 ar  
    36    16    21 1   
    37    16    24 ar  
    38    16    25 ar  
    39    17    18 ar  
    40    17    41 1   
    41    18    42 1   
    42    19    24 1   
    43    19    44 1   
    44    21    45 1   
    45    22    24 ar  
    46    22    46 1   
    47    23    25 ar  
    48    23    48 1   
    49    25    47 1   
    50    43    48 1   
@<TRIPOS>SUBSTRUCTURE
     1 P2Q         1 TEMP              0 ****  ****    0 ROOT
