@<TRIPOS>MOLECULE
P2R
   57    61     1     0     0
SMALL
No Charge or Current Charge


@<TRIPOS>ATOM
      1 N1         147.9540   125.5800   120.2420 na         1 P2R      -0.090700
      2 N3         151.7800   115.7270   121.6770 nb         1 P2R      -0.748000
      3 C4         148.3480   123.5420   119.2780 cc         1 P2R      -0.138400
      4 C5         147.5490   124.6820   119.2290 cd         1 P2R      -0.032300
      5 C6         146.4380   124.8870   118.2190 c6         1 P2R      -0.020200
      6 C7         149.2610   123.7430   120.3670 ca         1 P2R      -0.092800
      7 C8         149.0020   124.9680   120.9150 ca         1 P2R      -0.023200
      8 C10        151.0470   123.3450   121.9600 ca         1 P2R      -0.179600
      9 C13        152.1550   122.5000   122.5480 c          1 P2R       0.616700
     10 C15        153.3490   119.0590   121.5550 ca         1 P2R      -0.100300
     11 C17        152.5200   116.7710   121.2300 ca         1 P2R       0.320000
     12 C20        154.0510   118.9800   120.3390 ca         1 P2R      -0.124000
     13 C21        151.7480   114.6320   120.9300 ca         1 P2R       0.607900
     14 C22        152.4110   114.4690   119.7120 ca         1 P2R      -0.205000
     15 C24        147.4340   126.9270   120.5500 c3         1 P2R       0.079600
     16 C1         146.0410   123.5480   117.5490 c6         1 P2R      -0.068400
     17 O1         152.8290   122.8740   123.4980 o          1 P2R      -0.610100
     18 C2         147.2930   122.7380   117.1270 c6         1 P2R      -0.075400
     19 N2         152.3760   121.2760   121.9610 ns         1 P2R      -0.506900
     20 O2         145.2450   126.2830   121.4730 oh         1 P2R      -0.664000
     21 C3         148.1720   122.3630   118.3490 c6         1 P2R       0.001800
     22 N4         150.9780   113.6950   121.4870 nv         1 P2R      -1.068900
     23 C9         150.2700   122.9020   120.8550 ca         1 P2R      -0.037000
     24 C11        150.7700   124.6220   122.5240 ca         1 P2R      -0.047000
     25 C12        149.7450   125.4410   122.0060 ca         1 P2R      -0.143000
     26 C14        153.4020   120.3290   122.3890 c3         1 P2R       0.149300
     27 C16        152.5880   117.9550   121.9890 ca         1 P2R      -0.073000
     28 C18        153.2380   116.7090   120.0060 ca         1 P2R      -0.125000
     29 C19        153.9970   117.8100   119.5660 ca         1 P2R      -0.077000
     30 C23        153.1820   115.5360   119.2320 ca         1 P2R      -0.031000
     31 C25        146.4750   126.9680   121.7620 c3         1 P2R       0.137600
     32 H21        146.7700   125.5960   117.4490 hc         1 P2R       0.056700
     33 H20        145.5560   125.3370   118.6950 hc         1 P2R       0.056700
     34 H11        154.6390   119.8270   119.9910 ha         1 P2R       0.108000
     35 H12        152.3340   113.5400   119.1560 ha         1 P2R       0.119000
     36 H15        148.2860   127.5890   120.7480 h1         1 P2R       0.065700
     37 H14        146.9170   127.3210   119.6660 h1         1 P2R       0.065700
     38 H2         145.4030   123.7430   116.6760 hc         1 P2R       0.044200
     39 H1         145.4390   122.9510   118.2490 hc         1 P2R       0.044200
     40 H10        146.9900   121.8260   116.5940 hc         1 P2R       0.040700
     41 H9         147.8860   123.3300   116.4160 hc         1 P2R       0.040700
     42 H23        151.7890   121.0240   121.1790 hn         1 P2R       0.311500
     43 H26        144.6940   126.3220   122.2870 ho         1 P2R       0.448000
     44 H19        147.7000   121.5330   118.8930 hc         1 P2R       0.044200
     45 H18        149.1450   121.9890   118.0030 hc         1 P2R       0.044200
     46 H25        150.3790   114.0340   122.2300 hn         1 P2R       0.477000
     47 H24        150.5840   112.9870   120.8770 hn         1 P2R       0.477000
     48 H22        150.4330   121.9390   120.3810 ha         1 P2R       0.113000
     49 H3         151.3510   124.9830   123.3700 ha         1 P2R       0.131000
     50 H4         149.5440   126.4140   122.4470 ha         1 P2R       0.113000
     51 H6         153.2500   120.0880   123.4500 h1         1 P2R       0.065700
     52 H5         154.3890   120.8010   122.2870 h1         1 P2R       0.065700
     53 H7         152.0400   118.0110   122.9250 ha         1 P2R       0.141000
     54 H8         154.5450   117.7600   118.6270 ha         1 P2R       0.110000
     55 H13        153.7180   115.4540   118.2880 ha         1 P2R       0.116000
     56 H17        146.9720   126.5170   122.6310 h1         1 P2R       0.034700
     57 H16        146.2690   128.0190   122.0080 h1         1 P2R       0.034700
@<TRIPOS>BOND
     1     1     4 1   
     2     1     7 1   
     3     1    15 1   
     4     2    11 ar  
     5     2    13 ar  
     6     3     4 2   
     7     3     6 1   
     8     3    21 1   
     9     4     5 1   
    10     5    16 1   
    11     5    32 1   
    12     5    33 1   
    13     6     7 ar  
    14     6    23 ar  
    15     7    25 ar  
    16     8     9 1   
    17     8    23 ar  
    18     8    24 ar  
    19     9    17 2   
    20     9    19 1   
    21    10    12 ar  
    22    10    26 1   
    23    10    27 ar  
    24    11    27 ar  
    25    11    28 ar  
    26    12    29 ar  
    27    12    34 1   
    28    13    14 ar  
    29    13    22 1   
    30    14    30 ar  
    31    14    35 1   
    32    15    31 1   
    33    15    36 1   
    34    15    37 1   
    35    16    18 1   
    36    16    38 1   
    37    16    39 1   
    38    18    21 1   
    39    18    40 1   
    40    18    41 1   
    41    19    26 1   
    42    19    42 1   
    43    20    31 1   
    44    20    43 1   
    45    21    44 1   
    46    21    45 1   
    47    22    46 1   
    48    22    47 1   
    49    23    48 1   
    50    24    25 ar  
    51    24    49 1   
    52    25    50 1   
    53    26    51 1   
    54    26    52 1   
    55    27    53 1   
    56    28    29 ar  
    57    28    30 ar  
    58    29    54 1   
    59    30    55 1   
    60    31    56 1   
    61    31    57 1   
@<TRIPOS>SUBSTRUCTURE
     1 P2R         1 TEMP              0 ****  ****    0 ROOT
