@<TRIPOS>MOLECULE
P2R
   57    61     1     0     0
SMALL
abcg2


@<TRIPOS>ATOM
      1 N1         147.8910   125.2820   120.4670 na         1 P2R      -0.090700
      2 N3         152.1200   116.2400   122.4800 nb         1 P2R      -0.748000
      3 C4         148.6210   123.7750   118.9470 cc         1 P2R      -0.138400
      4 C5         147.7030   124.7650   119.1900 cd         1 P2R      -0.032300
      5 C6         146.6720   125.2400   118.2240 c6         1 P2R      -0.020200
      6 C7         149.4190   123.6470   120.1310 ca         1 P2R      -0.092800
      7 C8         148.9280   124.6040   121.0650 ca         1 P2R      -0.023200
      8 C10        151.0380   122.9450   121.7700 ca         1 P2R      -0.179600
      9 C13        152.1450   122.0550   122.2270 c          1 P2R       0.616700
     10 C15        153.5640   119.2820   121.0430 ca         1 P2R      -0.100300
     11 C17        152.5890   117.1100   121.5410 ca         1 P2R       0.320000
     12 C20        153.5600   118.9650   119.6650 ca         1 P2R      -0.124000
     13 C21        151.6540   115.0700   122.0830 ca         1 P2R       0.607900
     14 C22        151.6170   114.6750   120.7080 ca         1 P2R      -0.205000
     15 C24        147.0710   126.2880   121.1180 c3         1 P2R       0.079600
     16 C1         146.5460   124.2320   117.0710 c6         1 P2R      -0.068400
     17 O1         152.2540   121.7050   123.4070 o          1 P2R      -0.610100
     18 C2         147.9150   123.7720   116.5610 c6         1 P2R      -0.075400
     19 N2         153.0260   121.6680   121.2750 ns         1 P2R      -0.506900
     20 O2         145.1010   124.9360   121.2910 oh         1 P2R      -0.664000
     21 C3         148.7020   123.0310   117.6500 c6         1 P2R       0.001800
     22 N4         151.2290   114.1880   123.0380 nv         1 P2R      -1.068900
     23 C9         150.4870   122.8270   120.4950 ca         1 P2R      -0.037000
     24 C11        150.5220   123.8870   122.6820 ca         1 P2R      -0.047000
     25 C12        149.4770   124.7300   122.3410 ca         1 P2R      -0.143000
     26 C14        154.0410   120.6450   121.4890 c3         1 P2R       0.149300
     27 C16        153.0900   118.3650   121.9560 ca         1 P2R      -0.073000
     28 C18        152.5880   116.8050   120.1510 ca         1 P2R      -0.125000
     29 C19        153.0820   117.7540   119.2310 ca         1 P2R      -0.077000
     30 C23        152.0780   115.5380   119.7640 ca         1 P2R      -0.031000
     31 C25        146.0300   125.7030   122.0570 c3         1 P2R       0.137600
     32 H21        146.9530   126.2250   117.8330 hc         1 P2R       0.056700
     33 H20        145.7080   125.3670   118.7210 hc         1 P2R       0.056700
     34 H11        153.9390   119.6890   118.9540 ha         1 P2R       0.108000
     35 H12        151.2240   113.7020   120.4440 ha         1 P2R       0.119000
     36 H15        147.7200   126.9570   121.6880 h1         1 P2R       0.065700
     37 H14        146.5830   126.8850   120.3490 h1         1 P2R       0.065700
     38 H2         145.9690   124.6800   116.2600 hc         1 P2R       0.044200
     39 H1         145.9840   123.3610   117.4210 hc         1 P2R       0.044200
     40 H10        147.7920   123.1270   115.6870 hc         1 P2R       0.040700
     41 H9         148.4870   124.6470   116.2350 hc         1 P2R       0.040700
     42 H23        152.8980   122.0080   120.3360 hn         1 P2R       0.311500
     43 H26        144.5180   124.4670   121.9000 ho         1 P2R       0.448000
     44 H19        148.2990   122.0180   117.7700 hc         1 P2R       0.044200
     45 H18        149.7450   122.9070   117.3440 hc         1 P2R       0.044200
     46 H25        151.0600   114.5620   123.9580 hn         1 P2R       0.477000
     47 H24        150.6270   113.4320   122.7540 hn         1 P2R       0.477000
     48 H22        150.8530   122.0810   119.8000 ha         1 P2R       0.113000
     49 H3         150.9630   123.9500   123.6670 ha         1 P2R       0.131000
     50 H4         149.1010   125.4530   123.0520 ha         1 P2R       0.113000
     51 H6         154.2860   120.6360   122.5480 h1         1 P2R       0.065700
     52 H5         154.9320   120.9340   120.9300 h1         1 P2R       0.065700
     53 H7         153.0870   118.5950   123.0140 ha         1 P2R       0.141000
     54 H8         153.0810   117.5070   118.1750 ha         1 P2R       0.110000
     55 H13        152.0600   115.2720   118.7140 ha         1 P2R       0.116000
     56 H17        146.5180   125.0750   122.8080 h1         1 P2R       0.034700
     57 H16        145.5260   126.5280   122.5710 h1         1 P2R       0.034700
@<TRIPOS>BOND
     1     1     4 1   
     2     1     7 1   
     3     1    15 1   
     4     2    11 ar  
     5     2    13 ar  
     6     3     4 2   
     7     3     6 1   
     8     3    21 1   
     9     4     5 1   
    10     5    16 1   
    11     5    32 1   
    12     5    33 1   
    13     6     7 ar  
    14     6    23 ar  
    15     7    25 ar  
    16     8     9 1   
    17     8    23 ar  
    18     8    24 ar  
    19     9    17 2   
    20     9    19 1   
    21    10    12 ar  
    22    10    26 1   
    23    10    27 ar  
    24    11    27 ar  
    25    11    28 ar  
    26    12    29 ar  
    27    12    34 1   
    28    13    14 ar  
    29    13    22 1   
    30    14    30 ar  
    31    14    35 1   
    32    15    31 1   
    33    15    36 1   
    34    15    37 1   
    35    16    18 1   
    36    16    38 1   
    37    16    39 1   
    38    18    21 1   
    39    18    40 1   
    40    18    41 1   
    41    19    26 1   
    42    19    42 1   
    43    20    31 1   
    44    20    43 1   
    45    21    44 1   
    46    21    45 1   
    47    22    46 1   
    48    22    47 1   
    49    23    48 1   
    50    24    25 ar  
    51    24    49 1   
    52    25    50 1   
    53    26    51 1   
    54    26    52 1   
    55    27    53 1   
    56    28    29 ar  
    57    28    30 ar  
    58    29    54 1   
    59    30    55 1   
    60    31    56 1   
    61    31    57 1   
@<TRIPOS>SUBSTRUCTURE
     1 P2R         1 TEMP              0 ****  ****    0 ROOT
