@<TRIPOS>MOLECULE
P2S
   36    35     1     0     0
SMALL
No Charge or Current Charge


@<TRIPOS>ATOM
      1 OP3          1.1420    -2.7540     0.9250 o          1 P2S      -0.930167
      2 P           -0.0160    -2.5210     0.0180 p5         1 P2S       1.406700
      3 OP1         -1.2850    -2.5620     0.7960 o          1 P2S      -0.930167
      4 OP2         -0.0340    -3.5190    -1.0860 o          1 P2S      -0.930167
      5 NS           0.1250    -1.1860    -0.6360 n2         1 P2S      -0.797700
      6 S            0.1450     0.1210     0.1930 s6         1 P2S       0.912500
      7 OS           0.1430     0.1030     1.6640 o          1 P2S      -0.576000
      8 CD           1.5060     1.2100    -0.3500 c3         1 P2S      -0.227400
      9 CE           2.9480     0.7640     0.0580 c3         1 P2S      -0.143700
     10 C2           3.8980     1.9930     0.1420 c          1 P2S       0.718000
     11 O2T          4.1140     2.6430    -0.8710 o          1 P2S      -0.782500
     12 O2           4.3790     2.2820     1.2290 o          1 P2S      -0.782500
     13 CF           3.5240    -0.3360    -0.8800 c3         1 P2S      -0.074400
     14 CH           4.9220    -0.8450    -0.4710 c3         1 P2S      -0.058100
     15 CG          -1.2440     1.1770    -0.3250 c3         1 P2S      -0.270400
     16 CB          -2.6300     0.5870     0.0460 c3         1 P2S      -0.033400
     17 CA          -3.8350     1.4620    -0.4000 c3         1 P2S       0.019500
     18 N           -3.8240     2.8040     0.2920 n8         1 P2S      -0.987200
     19 C1          -5.1840     0.6350    -0.2860 c          1 P2S       0.688000
     20 O1          -5.7660     0.3270    -1.3170 o          1 P2S      -0.757000
     21 O1T         -5.6540     0.4310     0.8260 o          1 P2S      -0.757000
     22 HD1          1.2930     2.1810     0.1120 h1         1 P2S       0.058200
     23 HD2          1.4260     1.3220    -1.4370 h1         1 P2S       0.058200
     24 HE           2.8890     0.3400     1.0680 hc         1 P2S       0.043700
     25 HF1          3.5740     0.0490    -1.9070 hc         1 P2S       0.074200
     26 HF2          2.8460    -1.1950    -0.9030 hc         1 P2S       0.074200
     27 HH1          5.6680    -0.0430    -0.5250 hc         1 P2S      -0.002967
     28 HH2          4.9080    -1.2370     0.5530 hc         1 P2S      -0.002967
     29 HH3          5.2440    -1.6510    -1.1410 hc         1 P2S      -0.002967
     30 HG1         -1.1010     2.1480     0.1620 h1         1 P2S       0.042200
     31 HG2         -1.1640     1.3050    -1.4100 h1         1 P2S       0.042200
     32 HB1         -2.7290    -0.3980    -0.4280 hc         1 P2S       0.087200
     33 HB2         -2.6850     0.4160     1.1280 hc         1 P2S       0.087200
     34 HA          -3.6970     1.6680    -1.4710 h1         1 P2S       0.032700
     35 HN1         -4.6000     3.3700    -0.0700 hn         1 P2S       0.349500
     36 HN2         -4.0720     2.6590     1.2770 hn         1 P2S       0.349500
@<TRIPOS>BOND
     1     1     2 1   
     2     2     3 1   
     3     2     4 1   
     4     2     5 1   
     5     5     6 2   
     6     6     7 2   
     7     6     8 1   
     8     6    15 1   
     9     8     9 1   
    10     8    22 1   
    11     8    23 1   
    12     9    10 1   
    13     9    13 1   
    14     9    24 1   
    15    10    11 1   
    16    10    12 1   
    17    13    14 1   
    18    13    25 1   
    19    13    26 1   
    20    14    27 1   
    21    14    28 1   
    22    14    29 1   
    23    15    16 1   
    24    15    30 1   
    25    15    31 1   
    26    16    17 1   
    27    16    32 1   
    28    16    33 1   
    29    17    18 1   
    30    17    19 1   
    31    17    34 1   
    32    18    35 1   
    33    18    36 1   
    34    19    20 1   
    35    19    21 1   
@<TRIPOS>SUBSTRUCTURE
     1 P2S         1 TEMP              0 ****  ****    0 ROOT
