@<TRIPOS>MOLECULE
P2S
   36    35     1     0     0
SMALL
abcg2


@<TRIPOS>ATOM
      1 OP3          0.9670    -3.1540    -0.1040 o          1 P2S      -0.930167
      2 P           -0.2280    -2.5760    -0.8630 p5         1 P2S       1.406700
      3 OP1         -1.5360    -2.6230    -0.0670 o          1 P2S      -0.930167
      4 OP2         -0.3480    -3.0940    -2.2960 o          1 P2S      -0.930167
      5 NS           0.1550    -0.8820    -1.1320 n2         1 P2S      -0.797700
      6 S            0.1950     0.2010    -0.0810 s6         1 P2S       0.912500
      7 OS           0.2940    -0.1010     1.3690 o          1 P2S      -0.576000
      8 CD           1.5500     1.3330    -0.4800 c3         1 P2S      -0.227400
      9 CE           2.8990     0.8870     0.0930 c3         1 P2S      -0.143700
     10 C2           3.9170     2.0130    -0.2050 c          1 P2S       0.718000
     11 O2T          4.1590     2.2270    -1.4100 o          1 P2S      -0.782500
     12 O2           4.4210     2.6050     0.7690 o          1 P2S      -0.782500
     13 CF           3.4010    -0.4490    -0.4530 c3         1 P2S      -0.074400
     14 CH           4.7560    -0.8360     0.1260 c3         1 P2S      -0.058100
     15 CG          -1.2370     1.2960    -0.2580 c3         1 P2S      -0.270400
     16 CB          -2.4990     0.6090     0.2300 c3         1 P2S      -0.033400
     17 CA          -3.7640     1.3260    -0.2540 c3         1 P2S       0.019500
     18 N           -3.7150     2.7280     0.1350 n8         1 P2S      -0.987200
     19 C1          -5.0000     0.5410     0.2460 c          1 P2S       0.688000
     20 O1          -5.2410    -0.5300    -0.3460 o          1 P2S      -0.757000
     21 O1T         -5.5890     0.9800     1.2580 o          1 P2S      -0.757000
     22 HD1          1.2660     2.3010    -0.0590 h1         1 P2S       0.058200
     23 HD2          1.5710     1.4220    -1.5660 h1         1 P2S       0.058200
     24 HE           2.7880     0.7980     1.1770 hc         1 P2S       0.043700
     25 HF1          3.4740    -0.3800    -1.5410 hc         1 P2S       0.074200
     26 HF2          2.6820    -1.2410    -0.2460 hc         1 P2S       0.074200
     27 HH1          5.5340    -0.1180    -0.1390 hc         1 P2S      -0.002967
     28 HH2          4.7200    -0.8990     1.2160 hc         1 P2S      -0.002967
     29 HH3          5.0700    -1.8110    -0.2470 hc         1 P2S      -0.002967
     30 HG1         -1.0420     2.2230     0.2840 h1         1 P2S       0.042200
     31 HG2         -1.2950     1.5350    -1.3220 h1         1 P2S       0.042200
     32 HB1         -2.5170    -0.4330    -0.1010 hc         1 P2S       0.087200
     33 HB2         -2.4870     0.5850     1.3240 hc         1 P2S       0.087200
     34 HA          -3.7650     1.2870    -1.3490 h1         1 P2S       0.032700
     35 HN1         -4.5130     3.2040    -0.2680 hn         1 P2S       0.349500
     36 HN2         -3.8700     2.7790     1.1360 hn         1 P2S       0.349500
@<TRIPOS>BOND
     1     1     2 1   
     2     2     3 1   
     3     2     4 1   
     4     2     5 1   
     5     5     6 2   
     6     6     7 2   
     7     6     8 1   
     8     6    15 1   
     9     8     9 1   
    10     8    22 1   
    11     8    23 1   
    12     9    10 1   
    13     9    13 1   
    14     9    24 1   
    15    10    11 1   
    16    10    12 1   
    17    13    14 1   
    18    13    25 1   
    19    13    26 1   
    20    14    27 1   
    21    14    28 1   
    22    14    29 1   
    23    15    16 1   
    24    15    30 1   
    25    15    31 1   
    26    16    17 1   
    27    16    32 1   
    28    16    33 1   
    29    17    18 1   
    30    17    19 1   
    31    17    34 1   
    32    18    35 1   
    33    18    36 1   
    34    19    20 1   
    35    19    21 1   
@<TRIPOS>SUBSTRUCTURE
     1 P2S         1 TEMP              0 ****  ****    0 ROOT
