@<TRIPOS>MOLECULE
P2V
   63    67     1     0     0
SMALL
No Charge or Current Charge


@<TRIPOS>ATOM
      1 C10        -50.5140   -33.4990    26.3780 c3         1 P2V       0.282100
      2 C13        -50.6370   -36.2320    29.0590 ca         1 P2V      -0.108000
      3 C15        -50.6060   -37.3400    26.9030 ca         1 P2V      -0.101000
      4 C17        -50.5900   -36.1020    24.7300 cp         1 P2V      -0.033000
      5 C20        -50.6000   -36.1900    21.8930 ca         1 P2V      -0.111000
      6 C21        -51.6050   -35.4890    22.5780 ca         1 P2V      -0.115000
      7 C22        -51.6050   -35.4530    23.9840 ca         1 P2V      -0.095500
      8 C24        -46.4460   -34.2580    25.2780 ca         1 P2V       0.265300
      9 C26        -46.1740   -34.5960    22.4930 c6         1 P2V       0.081300
     10 C28        -45.8300   -34.7080    19.9490 c6         1 P2V       0.150800
     11 C01        -42.8000   -31.2240    25.8530 c3         1 P2V      -0.086100
     12 C03        -42.5990   -32.8950    27.7780 c3         1 P2V      -0.086100
     13 C04        -44.7940   -31.7230    27.3270 cc         1 P2V      -0.066300
     14 N05        -45.6200   -30.9140    28.1050 na         1 P2V       0.000500
     15 N06        -46.9790   -31.2370    27.9590 nc         1 P2V      -0.266400
     16 C07        -46.9330   -32.2960    27.0430 ca         1 P2V      -0.180000
     17 C08        -47.9900   -33.0440    26.4900 ca         1 P2V       0.418900
     18 N09        -49.3120   -32.7670    26.8170 nu         1 P2V      -0.923100
     19 C11        -50.5820   -34.8970    27.0030 ca         1 P2V      -0.086300
     20 C12        -50.6130   -34.9860    28.4130 ca         1 P2V      -0.104000
     21 C14        -50.6290   -37.4110    28.3030 ca         1 P2V      -0.106000
     22 C16        -50.5930   -36.0960    26.2250 cp         1 P2V      -0.008000
     23 C18        -49.5940   -36.8150    24.0190 ca         1 P2V      -0.095500
     24 C19        -49.5970   -36.8590    22.6140 ca         1 P2V      -0.115000
     25 N23        -47.7420   -34.0330    25.6050 nb         1 P2V      -0.260000
     26 C27        -45.9020   -35.5120    21.2770 c6         1 P2V      -0.104900
     27 N29        -46.5940   -33.4300    19.9910 n7         1 P2V      -0.850400
     28 C30        -47.8290   -33.5240    20.8020 c6         1 P2V       0.150800
     29 C31        -47.5010   -33.8080    22.2920 c6         1 P2V      -0.104900
     30 N32        -45.3700   -33.5880    25.7580 nb         1 P2V      -0.124000
     31 C33        -45.6610   -32.6180    26.6420 ca         1 P2V      -0.081000
     32 H1         -50.5200   -33.5530    25.2830 h1         1 P2V       0.065700
     33 H2         -51.4170   -32.9460    26.6750 h1         1 P2V       0.065700
     34 H3         -50.6570   -36.2810    30.1460 ha         1 P2V       0.113000
     35 H4         -50.6100   -38.2620    26.3270 ha         1 P2V       0.116000
     36 H5         -50.6010   -36.2210    20.8050 ha         1 P2V       0.113000
     37 H6         -52.3890   -34.9790    22.0220 ha         1 P2V       0.112000
     38 H7         -52.4000   -34.9230    24.5040 ha         1 P2V       0.116500
     39 H8         -45.3500   -33.8690    22.5500 h1         1 P2V       0.065700
     40 H9         -46.2160   -35.3400    19.1350 h1         1 P2V       0.050950
     41 H10        -44.7800   -34.4830    19.7090 h1         1 P2V       0.050950
     42 H11        -43.2800   -30.2960    25.5230 hc         1 P2V       0.045367
     43 H12        -41.7150   -31.0670    25.8480 hc         1 P2V       0.045367
     44 H13        -43.0360   -32.0100    25.1260 hc         1 P2V       0.045367
     45 H14        -42.9800   -30.8000    27.9390 hc         1 P2V       0.037700
     46 H15        -42.9370   -33.1340    28.7930 hc         1 P2V       0.045367
     47 H16        -42.8270   -33.7490    27.1300 hc         1 P2V       0.045367
     48 H17        -41.5100   -32.7660    27.8040 hc         1 P2V       0.045367
     49 H18        -45.3240   -30.1630    28.7220 hn         1 P2V       0.373000
     50 H19        -49.4310   -32.0140    27.4950 hn         1 P2V       0.508000
     51 H20        -50.6090   -34.0790    29.0130 ha         1 P2V       0.107000
     52 H21        -50.6440   -38.3780    28.8010 ha         1 P2V       0.114000
     53 H22        -48.8090   -37.3300    24.5660 ha         1 P2V       0.116500
     54 H23        -48.8200   -37.4070    22.0860 ha         1 P2V       0.112000
     55 H24        -46.7030   -36.2600    21.2050 hc         1 P2V       0.059450
     56 H25        -44.9690   -36.0730    21.4200 hc         1 P2V       0.059450
     57 H26        -45.9980   -32.7090    20.4180 hn         1 P2V       0.402000
     58 H28        -48.4100   -32.5930    20.7220 h1         1 P2V       0.050950
     59 H29        -48.4580   -34.3360    20.4050 h1         1 P2V       0.050950
     60 H30        -47.4380   -32.8590    22.8400 hc         1 P2V       0.059450
     61 H31        -48.3420   -34.3560    22.7350 hc         1 P2V       0.059450
     62 S25        -46.1380   -35.5450    24.0810 ss         1 P2V      -0.400300
     63 C02        -43.2880   -31.6110    27.2660 c3         1 P2V       0.010500
@<TRIPOS>BOND
     1     1    18 1   
     2     1    19 1   
     3     1    32 1   
     4     1    33 1   
     5     2    20 ar  
     6     2    21 ar  
     7     2    34 1   
     8     3    21 ar  
     9     3    22 ar  
    10     3    35 1   
    11     4     7 ar  
    12     4    22 1   
    13     4    23 ar  
    14     5     6 ar  
    15     5    24 ar  
    16     5    36 1   
    17     6     7 ar  
    18     6    37 1   
    19     7    38 1   
    20     8    25 ar  
    21     8    30 ar  
    22     8    62 1   
    23     9    26 1   
    24     9    29 1   
    25     9    39 1   
    26     9    62 1   
    27    10    26 1   
    28    10    27 1   
    29    10    40 1   
    30    10    41 1   
    31    11    42 1   
    32    11    43 1   
    33    11    44 1   
    34    11    63 1   
    35    12    46 1   
    36    12    47 1   
    37    12    48 1   
    38    12    63 1   
    39    13    14 1   
    40    13    31 2   
    41    13    63 1   
    42    14    15 1   
    43    14    49 1   
    44    15    16 2   
    45    16    17 ar  
    46    16    31 ar  
    47    17    18 1   
    48    17    25 ar  
    49    18    50 1   
    50    19    20 ar  
    51    19    22 ar  
    52    20    51 1   
    53    21    52 1   
    54    23    24 ar  
    55    23    53 1   
    56    24    54 1   
    57    26    55 1   
    58    26    56 1   
    59    27    28 1   
    60    27    57 1   
    61    28    29 1   
    62    28    58 1   
    63    28    59 1   
    64    29    60 1   
    65    29    61 1   
    66    30    31 ar  
    67    45    63 1   
@<TRIPOS>SUBSTRUCTURE
     1 P2V         1 TEMP              0 ****  ****    0 ROOT
