@<TRIPOS>MOLECULE
P2V
   63    67     1     0     0
SMALL
abcg2


@<TRIPOS>ATOM
      1 C10        -50.2700   -33.5520    26.1920 c3         1 P2V       0.282100
      2 C13        -50.4040   -36.2710    28.8410 ca         1 P2V      -0.108000
      3 C15        -50.6220   -37.3340    26.7000 ca         1 P2V      -0.101000
      4 C17        -50.6370   -36.0870    24.5620 cp         1 P2V      -0.033000
      5 C20        -50.7830   -36.1420    21.7590 ca         1 P2V      -0.111000
      6 C21        -51.6190   -35.3030    22.4870 ca         1 P2V      -0.115000
      7 C22        -51.5470   -35.2770    23.8760 ca         1 P2V      -0.095500
      8 C24        -46.2700   -34.1540    25.3260 ca         1 P2V       0.265300
      9 C26        -46.2590   -34.6190    22.5520 c6         1 P2V       0.081300
     10 C28        -46.0740   -34.9220    20.0690 c6         1 P2V       0.150800
     11 C01        -42.7130   -30.9470    26.1250 c3         1 P2V      -0.086100
     12 C03        -42.5160   -32.7270    27.9190 c3         1 P2V      -0.086100
     13 C04        -44.7200   -31.6570    27.4270 cc         1 P2V      -0.066300
     14 N05        -45.5940   -30.9330    28.1590 na         1 P2V       0.000500
     15 N06        -46.8940   -31.2420    27.9910 nc         1 P2V      -0.266400
     16 C07        -46.8520   -32.2330    27.0910 ca         1 P2V      -0.180000
     17 C08        -47.9030   -32.9950    26.4960 ca         1 P2V       0.418900
     18 N09        -49.1940   -32.7630    26.7710 nu         1 P2V      -0.923100
     19 C11        -50.4010   -34.9320    26.8140 ca         1 P2V      -0.086300
     20 C12        -50.3280   -35.0410    28.2030 ca         1 P2V      -0.104000
     21 C14        -50.5480   -37.4280    28.0810 ca         1 P2V      -0.106000
     22 C16        -50.5590   -36.0970    26.0440 cp         1 P2V      -0.008000
     23 C18        -49.8050   -36.9280    23.8160 ca         1 P2V      -0.095500
     24 C19        -49.8750   -36.9550    22.4290 ca         1 P2V      -0.115000
     25 N23        -47.5740   -33.9580    25.6410 nb         1 P2V      -0.260000
     26 C27        -46.0850   -35.6450    21.4360 c6         1 P2V      -0.104900
     27 N29        -46.8620   -33.6790    20.0410 n7         1 P2V      -0.850400
     28 C30        -48.0130   -33.7530    20.9450 c6         1 P2V       0.150800
     29 C31        -47.6290   -33.9390    22.4330 c6         1 P2V      -0.104900
     30 N32        -45.2210   -33.5150    25.7890 nb         1 P2V      -0.124000
     31 C33        -45.5280   -32.5410    26.6980 ca         1 P2V      -0.081000
     32 H1         -50.0960   -33.6370    25.1240 h1         1 P2V       0.065700
     33 H2         -51.1900   -32.9850    26.3340 h1         1 P2V       0.065700
     34 H3         -50.3470   -36.3270    29.9210 ha         1 P2V       0.113000
     35 H4         -50.7410   -38.2320    26.1070 ha         1 P2V       0.116000
     36 H5         -50.8340   -36.1580    20.6770 ha         1 P2V       0.113000
     37 H6         -52.3330   -34.6700    21.9760 ha         1 P2V       0.112000
     38 H7         -52.2180   -34.6340    24.4320 ha         1 P2V       0.116500
     39 H8         -45.4690   -33.8710    22.4720 h1         1 P2V       0.065700
     40 H9         -46.4580   -35.6060    19.3060 h1         1 P2V       0.050950
     41 H10        -45.0490   -34.6690    19.7920 h1         1 P2V       0.050950
     42 H11        -43.2110   -30.0220    25.8280 hc         1 P2V       0.045367
     43 H12        -41.6400   -30.7560    26.1900 hc         1 P2V       0.045367
     44 H13        -42.8820   -31.6930    25.3470 hc         1 P2V       0.045367
     45 H14        -43.0520   -30.6710    28.2260 hc         1 P2V       0.037700
     46 H15        -42.8750   -33.0650    28.8930 hc         1 P2V       0.045367
     47 H16        -42.6780   -33.5290    27.1980 hc         1 P2V       0.045367
     48 H17        -41.4430   -32.5410    27.9920 hc         1 P2V       0.045367
     49 H18        -45.3460   -30.1940    28.8020 hn         1 P2V       0.373000
     50 H19        -49.4120   -32.0530    27.4510 hn         1 P2V       0.508000
     51 H20        -50.1920   -34.1430    28.7940 ha         1 P2V       0.107000
     52 H21        -50.6060   -38.3970    28.5620 ha         1 P2V       0.114000
     53 H22        -49.0810   -37.5490    24.3290 ha         1 P2V       0.116500
     54 H23        -49.2080   -37.6010    21.8710 ha         1 P2V       0.112000
     55 H24        -46.9110   -36.3580    21.4830 hc         1 P2V       0.059450
     56 H25        -45.1610   -36.2120    21.5590 hc         1 P2V       0.059450
     57 H26        -46.2710   -32.9060    20.3260 hn         1 P2V       0.402000
     58 H28        -48.6170   -32.8530    20.8260 h1         1 P2V       0.050950
     59 H29        -48.6300   -34.5930    20.6190 h1         1 P2V       0.050950
     60 H30        -47.6010   -32.9750    22.9410 hc         1 P2V       0.059450
     61 H31        -48.3880   -34.5420    22.9310 hc         1 P2V       0.059450
     62 S25        -45.9630   -35.4800    24.1540 ss         1 P2V      -0.400300
     63 C02        -43.2400   -31.4470    27.4780 c3         1 P2V       0.010500
@<TRIPOS>BOND
     1     1    18 1   
     2     1    19 1   
     3     1    32 1   
     4     1    33 1   
     5     2    20 ar  
     6     2    21 ar  
     7     2    34 1   
     8     3    21 ar  
     9     3    22 ar  
    10     3    35 1   
    11     4     7 ar  
    12     4    22 1   
    13     4    23 ar  
    14     5     6 ar  
    15     5    24 ar  
    16     5    36 1   
    17     6     7 ar  
    18     6    37 1   
    19     7    38 1   
    20     8    25 ar  
    21     8    30 ar  
    22     8    62 1   
    23     9    26 1   
    24     9    29 1   
    25     9    39 1   
    26     9    62 1   
    27    10    26 1   
    28    10    27 1   
    29    10    40 1   
    30    10    41 1   
    31    11    42 1   
    32    11    43 1   
    33    11    44 1   
    34    11    63 1   
    35    12    46 1   
    36    12    47 1   
    37    12    48 1   
    38    12    63 1   
    39    13    14 1   
    40    13    31 2   
    41    13    63 1   
    42    14    15 1   
    43    14    49 1   
    44    15    16 2   
    45    16    17 ar  
    46    16    31 ar  
    47    17    18 1   
    48    17    25 ar  
    49    18    50 1   
    50    19    20 ar  
    51    19    22 ar  
    52    20    51 1   
    53    21    52 1   
    54    23    24 ar  
    55    23    53 1   
    56    24    54 1   
    57    26    55 1   
    58    26    56 1   
    59    27    28 1   
    60    27    57 1   
    61    28    29 1   
    62    28    58 1   
    63    28    59 1   
    64    29    60 1   
    65    29    61 1   
    66    30    31 ar  
    67    45    63 1   
@<TRIPOS>SUBSTRUCTURE
     1 P2V         1 TEMP              0 ****  ****    0 ROOT
