@<TRIPOS>MOLECULE
P2X
   39    42     1     0     0
SMALL
bcc


@<TRIPOS>ATOM
      1 O1           6.3940    -1.2290     0.6160 oh         1 P2X      -0.499100
      2 C22          5.1980    -0.6920     0.2730 ca         1 P2X       0.107100
      3 C20          4.0530    -1.3300     0.7130 ca         1 P2X      -0.117000
      4 C17          2.8090    -0.7890     0.3640 ca         1 P2X      -0.065800
      5 C18          2.7500     0.3900    -0.4070 ca         1 P2X      -0.079200
      6 C21          3.9010     1.0280    -0.8530 ca         1 P2X      -0.107000
      7 C23          5.1200     0.4770    -0.5080 ca         1 P2X      -0.191000
      8 C16          1.4620    -1.1740     0.6300 cc         1 P2X      -0.149200
      9 C12          0.6530    -0.2440     0.0340 cd         1 P2X      -0.085700
     10 N5           1.4270     0.7160    -0.5720 na         1 P2X      -0.182400
     11 C9          -0.7960    -0.1800     0.0060 cd         1 P2X       0.436200
     12 C10         -1.6650     0.9450     0.0710 ca         1 P2X      -0.514500
     13 C11         -2.9480     0.3930     0.0050 ca         1 P2X       0.485800
     14 N2          -2.7930    -0.9420    -0.0740 na         1 P2X       0.015200
     15 C8          -3.8340    -1.9570    -0.1620 c3         1 P2X       0.081000
     16 C13         -3.7260    -2.7220    -1.4740 c3         1 P2X      -0.104600
     17 C14         -3.7830    -2.8780     1.0480 c3         1 P2X      -0.104600
     18 N3          -1.5020    -1.2850    -0.0800 nc         1 P2X      -0.501100
     19 N4          -4.1000     1.0690     0.0270 nb         1 P2X      -0.757000
     20 C19         -3.9120     2.3670     0.1350 ca         1 P2X       0.722900
     21 N6          -2.7640     3.0320     0.2490 nb         1 P2X      -0.837000
     22 C15         -1.6160     2.3490     0.2420 ca         1 P2X       0.783200
     23 N7          -0.4830     3.0380     0.3910 nv         1 P2X      -0.962500
     24 H1           7.1130    -0.6830     0.2800 ho         1 P2X       0.422000
     25 H2           4.1220    -2.2290     1.3120 ha         1 P2X       0.151000
     26 H3           3.8550     1.9290    -1.4510 ha         1 P2X       0.133000
     27 H4           6.0320     0.9590    -0.8420 ha         1 P2X       0.129000
     28 H5           1.1260    -2.0130     1.2190 ha         1 P2X       0.166000
     29 H6           1.0870     1.3590    -1.2700 hn         1 P2X       0.299700
     30 H7          -4.7710    -1.3990    -0.1480 h1         1 P2X       0.083700
     31 H8          -2.7960    -3.2890    -1.5200 hc         1 P2X       0.049367
     32 H9          -4.5550    -3.4250    -1.5570 hc         1 P2X       0.049367
     33 H10         -3.7660    -2.0500    -2.3310 hc         1 P2X       0.049367
     34 H11         -3.8560    -2.3160     1.9790 hc         1 P2X       0.049367
     35 H12         -4.6160    -3.5790     1.0090 hc         1 P2X       0.049367
     36 H13         -2.8570    -3.4550     1.0630 hc         1 P2X       0.049367
     37 H14         -4.8060     2.9820     0.1440 h5         1 P2X       0.047100
     38 H15         -0.5350     4.0250     0.5800 hn         1 P2X       0.448800
     39 H16          0.4000     2.5830     0.5490 hn         1 P2X       0.448800
@<TRIPOS>BOND
     1     1     2 1   
     2     1    24 1   
     3     2     3 ar  
     4     2     7 ar  
     5     3     4 ar  
     6     3    25 1   
     7     4     5 ar  
     8     4     8 1   
     9     5     6 ar  
    10     5    10 1   
    11     6     7 ar  
    12     6    26 1   
    13     7    27 1   
    14     8     9 2   
    15     8    28 1   
    16     9    10 1   
    17     9    11 1   
    18    10    29 1   
    19    11    12 1   
    20    11    18 2   
    21    12    13 ar  
    22    12    22 ar  
    23    13    14 1   
    24    13    19 ar  
    25    14    15 1   
    26    14    18 1   
    27    15    16 1   
    28    15    17 1   
    29    15    30 1   
    30    16    31 1   
    31    16    32 1   
    32    16    33 1   
    33    17    34 1   
    34    17    35 1   
    35    17    36 1   
    36    19    20 ar  
    37    20    21 ar  
    38    20    37 1   
    39    21    22 ar  
    40    22    23 1   
    41    23    38 1   
    42    23    39 1   
@<TRIPOS>SUBSTRUCTURE
     1 P2X         1 TEMP              0 ****  ****    0 ROOT
