@<TRIPOS>MOLECULE
P2X
   39    42     1     0     0
SMALL
No Charge or Current Charge


@<TRIPOS>ATOM
      1 O1           6.4510    -1.4480     0.0210 oh         1 P2X      -0.538100
      2 C22          5.2530    -0.7990    -0.0330 ca         1 P2X       0.107100
      3 C20          4.0570    -1.5240     0.1450 ca         1 P2X      -0.099000
      4 C17          2.8490    -0.8170     0.0820 ca         1 P2X      -0.065800
      5 C18          2.8060     0.5330    -0.1430 ca         1 P2X      -0.079200
      6 C21          3.9800     1.2780    -0.3240 ca         1 P2X      -0.089000
      7 C23          5.2160     0.5970    -0.2660 ca         1 P2X      -0.173000
      8 C16          1.4980    -1.2730     0.2190 cc         1 P2X      -0.199200
      9 C12          0.6940    -0.1460     0.0810 cd         1 P2X      -0.085700
     10 N5           1.4970     0.9900    -0.1630 na         1 P2X      -0.232700
     11 C9          -0.7560    -0.1720     0.1100 cd         1 P2X       0.436200
     12 C10         -1.7000     0.9250    -0.0220 ca         1 P2X      -0.383900
     13 C11         -2.9330     0.3530    -0.1740 ca         1 P2X       0.157500
     14 N2          -2.7450    -1.0140    -0.0590 na         1 P2X      -0.014100
     15 C8          -3.8410    -2.0100    -0.0960 c3         1 P2X       0.110300
     16 C13         -3.6450    -3.0400    -1.2310 c3         1 P2X      -0.104600
     17 C14         -4.0390    -2.6940     1.2740 c3         1 P2X      -0.104600
     18 N3          -1.4040    -1.3460     0.1400 nc         1 P2X      -0.501100
     19 N4          -4.0430     1.0980    -0.3450 nb         1 P2X      -0.231000
     20 C19         -3.8550     2.4380    -0.3370 ca         1 P2X       0.196900
     21 N6          -2.6840     3.0850    -0.1290 nb         1 P2X      -0.311000
     22 C15         -1.6030     2.3140     0.0450 ca         1 P2X       0.454900
     23 N7          -0.4880     2.9860     0.4000 nv         1 P2X      -1.072900
     24 H1           7.1670    -0.7930    -0.1230 ho         1 P2X       0.461000
     25 H2           4.0720    -2.5950     0.3240 ha         1 P2X       0.133000
     26 H3           3.9410     2.3510    -0.5040 ha         1 P2X       0.115000
     27 H4           6.1390     1.1560    -0.4040 ha         1 P2X       0.111000
     28 H5           1.1550    -2.2910     0.3900 ha         1 P2X       0.216000
     29 H6           1.1640     1.9320    -0.3600 hn         1 P2X       0.350000
     30 H7          -4.7690    -1.4670    -0.3180 h1         1 P2X       0.083700
     31 H8          -2.7440    -3.6420    -1.0640 hc         1 P2X       0.049367
     32 H9          -4.5050    -3.7170    -1.2900 hc         1 P2X       0.049367
     33 H10         -3.5460    -2.5320    -2.1980 hc         1 P2X       0.049367
     34 H11         -4.2200    -1.9460     2.0540 hc         1 P2X       0.049367
     35 H12         -4.8990    -3.3730     1.2460 hc         1 P2X       0.049367
     36 H13         -3.1510    -3.2750     1.5530 hc         1 P2X       0.049367
     37 H14         -4.7390     3.0570    -0.4800 h5         1 P2X       0.047100
     38 H15         -0.6120     3.9940     0.4650 hn         1 P2X       0.504000
     39 H16          0.0060     2.6070     1.2040 hn         1 P2X       0.504000
@<TRIPOS>BOND
     1     1     2 1   
     2     1    24 1   
     3     2     3 ar  
     4     2     7 ar  
     5     3     4 ar  
     6     3    25 1   
     7     4     5 ar  
     8     4     8 1   
     9     5     6 ar  
    10     5    10 1   
    11     6     7 ar  
    12     6    26 1   
    13     7    27 1   
    14     8     9 2   
    15     8    28 1   
    16     9    10 1   
    17     9    11 1   
    18    10    29 1   
    19    11    12 1   
    20    11    18 2   
    21    12    13 ar  
    22    12    22 ar  
    23    13    14 1   
    24    13    19 ar  
    25    14    15 1   
    26    14    18 1   
    27    15    16 1   
    28    15    17 1   
    29    15    30 1   
    30    16    31 1   
    31    16    32 1   
    32    16    33 1   
    33    17    34 1   
    34    17    35 1   
    35    17    36 1   
    36    19    20 ar  
    37    20    21 ar  
    38    20    37 1   
    39    21    22 ar  
    40    22    23 1   
    41    23    38 1   
    42    23    39 1   
@<TRIPOS>SUBSTRUCTURE
     1 P2X         1 TEMP              0 ****  ****    0 ROOT
