@<TRIPOS>MOLECULE
P2Y
   19    19     1     0     0
SMALL
bcc


@<TRIPOS>ATOM
      1 NA          -0.4450    -0.0330     2.6120 n8         1 P2Y      -0.892800
      2 C            0.5850     0.2310     1.6180 c3         1 P2Y       0.159800
      3 CA           0.2140    -0.3500     0.2660 c5         1 P2Y       0.159500
      4 N           -1.0090     0.2390    -0.2690 n7         1 P2Y      -0.804200
      5 CD          -1.0170    -0.1120    -1.6810 c5         1 P2Y       0.148800
      6 CG           0.4240     0.1680    -2.1120 c5         1 P2Y      -0.078400
      7 CB           1.2490    -0.0540    -0.8290 c5         1 P2Y      -0.078400
      8 HNA1        -0.1040     0.2230     3.5290 hn         1 P2Y       0.339800
      9 HNA2        -1.2370     0.5740     2.4410 hn         1 P2Y       0.339800
     10 H1           1.5130    -0.2420     1.9510 h1         1 P2Y       0.032700
     11 H2           0.8070     1.3010     1.4850 h1         1 P2Y       0.032700
     12 HA           0.1130    -1.4420     0.3800 h1         1 P2Y       0.035700
     13 H           -1.8270    -0.1340     0.1980 hn         1 P2Y       0.357800
     14 HD3         -1.7500     0.4810    -2.2320 h1         1 P2Y       0.034200
     15 HD2         -1.2560    -1.1710    -1.8510 h1         1 P2Y       0.034200
     16 HG3          0.5260     1.1960    -2.4620 hc         1 P2Y       0.046200
     17 HG2          0.7330    -0.4820    -2.9310 hc         1 P2Y       0.046200
     18 HB2          1.8250     0.8390    -0.5790 hc         1 P2Y       0.044700
     19 HB3          1.9600    -0.8740    -0.9260 hc         1 P2Y       0.044700
@<TRIPOS>BOND
     1     1     2 1   
     2     1     8 1   
     3     1     9 1   
     4     2     3 1   
     5     2    10 1   
     6     2    11 1   
     7     3     4 1   
     8     3     7 1   
     9     3    12 1   
    10     4     5 1   
    11     4    13 1   
    12     5     6 1   
    13     5    14 1   
    14     5    15 1   
    15     6     7 1   
    16     6    16 1   
    17     6    17 1   
    18     7    18 1   
    19     7    19 1   
@<TRIPOS>SUBSTRUCTURE
     1 P2Y         1 TEMP              0 ****  ****    0 ROOT
