@<TRIPOS>MOLECULE
P2Y
   19    19     1     0     0
SMALL
No Charge or Current Charge


@<TRIPOS>ATOM
      1 NA          -0.2870    -0.2100     2.7220 n8         1 P2Y      -1.003200
      2 C            0.6330     0.2690     1.6600 c3         1 P2Y       0.159800
      3 CA           0.3030    -0.3470     0.2630 c5         1 P2Y       0.159500
      4 N           -1.1020    -0.0840    -0.1900 n7         1 P2Y      -0.859400
      5 CD          -1.0270     0.2880    -1.6280 c5         1 P2Y       0.148800
      6 CG           0.3490    -0.2330    -2.1050 c5         1 P2Y      -0.078400
      7 CB           1.2040     0.1750    -0.8870 c5         1 P2Y      -0.078400
      8 HNA1        -0.1830     0.3900     3.5480 hn         1 P2Y       0.395000
      9 HNA2        -1.2430    -0.0170     2.3990 hn         1 P2Y       0.395000
     10 H1           1.6660     0.0220     1.9410 h1         1 P2Y       0.032700
     11 H2           0.5450     1.3620     1.5930 h1         1 P2Y       0.032700
     12 HA           0.4410    -1.4360     0.3450 h1         1 P2Y       0.035700
     13 H           -1.6290    -0.9610    -0.0950 hn         1 P2Y       0.413000
     14 HD3         -1.0710     1.3820    -1.7320 h1         1 P2Y       0.034200
     15 HD2         -1.8610    -0.1350    -2.2050 h1         1 P2Y       0.034200
     16 HG3          0.6790     0.2400    -3.0360 hc         1 P2Y       0.046200
     17 HG2          0.3440    -1.3180    -2.2600 hc         1 P2Y       0.046200
     18 HB2          1.3470     1.2620    -0.8360 hc         1 P2Y       0.044700
     19 HB3          2.1960    -0.2920    -0.8890 hc         1 P2Y       0.044700
@<TRIPOS>BOND
     1     1     2 1   
     2     1     8 1   
     3     1     9 1   
     4     2     3 1   
     5     2    10 1   
     6     2    11 1   
     7     3     4 1   
     8     3     7 1   
     9     3    12 1   
    10     4     5 1   
    11     4    13 1   
    12     5     6 1   
    13     5    14 1   
    14     5    15 1   
    15     6     7 1   
    16     6    16 1   
    17     6    17 1   
    18     7    18 1   
    19     7    19 1   
@<TRIPOS>SUBSTRUCTURE
     1 P2Y         1 TEMP              0 ****  ****    0 ROOT
