@<TRIPOS>MOLECULE
P2Z
   40    42     1     0     0
SMALL
abcg2


@<TRIPOS>ATOM
      1 C16          4.5850    -0.7840     1.3320 c3         1 P2Z       0.147100
      2 N2           4.6630     0.1930     0.2670 n3         1 P2Z      -0.709600
      3 C15          5.9270     0.0770    -0.4300 c3         1 P2Z       0.147100
      4 C14          3.5530     0.0800    -0.6590 c3         1 P2Z       0.165800
      5 C13          2.2150     0.4940    -0.0610 c3         1 P2Z      -0.113400
      6 C12          1.1170     0.4390    -1.1330 c3         1 P2Z       0.070600
      7 N1          -0.2420     0.2270    -0.6580 na         1 P2Z      -0.089000
      8 C1          -0.9780     1.3240    -0.1950 ca         1 P2Z       0.029000
      9 C17         -0.3730     2.5400     0.1300 ca         1 P2Z      -0.162000
     10 C5          -1.1270     3.6200     0.5690 ca         1 P2Z      -0.076000
     11 C6          -2.4980     3.5090     0.7300 ca         1 P2Z      -0.137500
     12 C7          -3.1140     2.3040     0.4240 ca         1 P2Z      -0.056000
     13 C2          -2.3690     1.2370    -0.0540 ca         1 P2Z      -0.131000
     14 S1          -3.2000    -0.2050    -0.6250 ss         1 P2Z       0.021000
     15 C3          -1.9840    -1.4000    -0.1890 ca         1 P2Z      -0.131000
     16 C4          -0.6280    -1.0770    -0.3320 ca         1 P2Z       0.029000
     17 C11          0.2980    -2.1100    -0.1550 ca         1 P2Z      -0.162000
     18 C10         -0.1140    -3.3960     0.1660 ca         1 P2Z      -0.076000
     19 C9          -1.4560    -3.6870     0.3480 ca         1 P2Z      -0.137500
     20 C8          -2.3900    -2.6760     0.1730 ca         1 P2Z      -0.056000
     21 H1           5.4440    -0.6760     1.9950 h1         1 P2Z       0.031700
     22 H2           3.6900    -0.6410     1.9380 h1         1 P2Z       0.031700
     23 H3           4.5770    -1.8210     0.9590 h1         1 P2Z       0.031700
     24 H5           6.0620    -0.8990    -0.9240 h1         1 P2Z       0.031700
     25 H6           6.0090     0.8500    -1.1950 h1         1 P2Z       0.031700
     26 H7           6.7530     0.2090     0.2700 h1         1 P2Z       0.031700
     27 H8           3.7630     0.7290    -1.5140 h1         1 P2Z       0.028700
     28 H9           3.4690    -0.9460    -1.0640 h1         1 P2Z       0.028700
     29 H10          1.9450    -0.1460     0.7800 hc         1 P2Z       0.058700
     30 H11          2.3110     1.5010     0.3480 hc         1 P2Z       0.058700
     31 H12          1.1240     1.3550    -1.7260 h1         1 P2Z       0.058200
     32 H13          1.3300    -0.3660    -1.8410 h1         1 P2Z       0.058200
     33 H14          0.6960     2.6660     0.0410 ha         1 P2Z       0.118000
     34 H15         -0.6240     4.5500     0.8010 ha         1 P2Z       0.113000
     35 H16         -3.0840     4.3460     1.0840 ha         1 P2Z       0.118000
     36 H17         -4.1860     2.1950     0.5380 ha         1 P2Z       0.124000
     37 H18          1.3580    -1.9380    -0.2760 ha         1 P2Z       0.118000
     38 H19          0.6340    -4.1690     0.2840 ha         1 P2Z       0.113000
     39 H20         -1.7770    -4.6850     0.6140 ha         1 P2Z       0.118000
     40 H21         -3.4460    -2.8820     0.2950 ha         1 P2Z       0.124000
@<TRIPOS>BOND
     1     1     2 1   
     2     1    21 1   
     3     1    22 1   
     4     1    23 1   
     5     2     3 1   
     6     2     4 1   
     7     3    24 1   
     8     3    25 1   
     9     3    26 1   
    10     4     5 1   
    11     4    27 1   
    12     4    28 1   
    13     5     6 1   
    14     5    29 1   
    15     5    30 1   
    16     6     7 1   
    17     6    31 1   
    18     6    32 1   
    19     7     8 1   
    20     7    16 1   
    21     8     9 ar  
    22     8    13 ar  
    23     9    10 ar  
    24     9    33 1   
    25    10    11 ar  
    26    10    34 1   
    27    11    12 ar  
    28    11    35 1   
    29    12    13 ar  
    30    12    36 1   
    31    13    14 1   
    32    14    15 1   
    33    15    16 ar  
    34    15    20 ar  
    35    16    17 ar  
    36    17    18 ar  
    37    17    37 1   
    38    18    19 ar  
    39    18    38 1   
    40    19    20 ar  
    41    19    39 1   
    42    20    40 1   
@<TRIPOS>SUBSTRUCTURE
     1 P2Z         1 TEMP              0 ****  ****    0 ROOT
