@<TRIPOS>MOLECULE
P2Z
   40    42     1     0     0
SMALL
No Charge or Current Charge


@<TRIPOS>ATOM
      1 C16          5.2300    -0.6450     0.9680 c3         1 P2Z       0.147100
      2 N2           4.9230     0.4110    -0.0270 n3         1 P2Z      -0.709600
      3 C15          6.0700     0.6690    -0.9260 c3         1 P2Z       0.147100
      4 C14          3.6660     0.1790    -0.7820 c3         1 P2Z       0.165800
      5 C13          2.3880     0.1510     0.0830 c3         1 P2Z      -0.113400
      6 C12          1.1050     0.0690    -0.7730 c3         1 P2Z       0.070600
      7 N1          -0.1550     0.0180     0.0010 na         1 P2Z      -0.089000
      8 C1          -0.9150     1.1850     0.1270 ca         1 P2Z       0.029000
      9 C17         -0.4270     2.2850     0.8620 ca         1 P2Z      -0.162000
     10 C5          -1.1820     3.4660     0.9580 ca         1 P2Z      -0.076000
     11 C6          -2.4290     3.5570     0.3190 ca         1 P2Z      -0.137500
     12 C7          -2.9270     2.4630    -0.4080 ca         1 P2Z      -0.056000
     13 C2          -2.1750     1.2780    -0.5020 ca         1 P2Z      -0.131000
     14 S1          -2.8410    -0.1190    -1.4000 ss         1 P2Z       0.021000
     15 C3          -2.0480    -1.4330    -0.4790 ca         1 P2Z      -0.131000
     16 C4          -0.8020    -1.2120     0.1470 ca         1 P2Z       0.029000
     17 C11         -0.2130    -2.2490     0.8980 ca         1 P2Z      -0.162000
     18 C10         -0.8530    -3.4950     1.0130 ca         1 P2Z      -0.076000
     19 C9          -2.0860    -3.7120     0.3780 ca         1 P2Z      -0.137500
     20 C8          -2.6850    -2.6820    -0.3660 ca         1 P2Z      -0.056000
     21 H1           6.1740    -0.4250     1.4860 h1         1 P2Z       0.031700
     22 H2           4.4460    -0.7130     1.7330 h1         1 P2Z       0.031700
     23 H3           5.3280    -1.6250     0.4820 h1         1 P2Z       0.031700
     24 H5           6.2920    -0.2140    -1.5420 h1         1 P2Z       0.031700
     25 H6           5.8570     1.5110    -1.5980 h1         1 P2Z       0.031700
     26 H7           6.9690     0.9200    -0.3480 h1         1 P2Z       0.031700
     27 H8           3.5430     0.9810    -1.5230 h1         1 P2Z       0.028700
     28 H9           3.7340    -0.7640    -1.3420 h1         1 P2Z       0.028700
     29 H10          2.4230    -0.7080     0.7600 hc         1 P2Z       0.058700
     30 H11          2.3620     1.0530     0.7030 hc         1 P2Z       0.058700
     31 H12          1.0660     0.9380    -1.4420 h1         1 P2Z       0.058200
     32 H13          1.1570    -0.8250    -1.4080 h1         1 P2Z       0.058200
     33 H14          0.5330     2.2270     1.3660 ha         1 P2Z       0.118000
     34 H15         -0.7990     4.3120     1.5270 ha         1 P2Z       0.113000
     35 H16         -3.0130     4.4710     0.3930 ha         1 P2Z       0.118000
     36 H17         -3.8990     2.5320    -0.8930 ha         1 P2Z       0.124000
     37 H18          0.7390    -2.0940     1.3980 ha         1 P2Z       0.118000
     38 H19         -0.3930    -4.2920     1.5940 ha         1 P2Z       0.113000
     39 H20         -2.5820    -4.6770     0.4670 ha         1 P2Z       0.118000
     40 H21         -3.6450    -2.8500    -0.8490 ha         1 P2Z       0.124000
@<TRIPOS>BOND
     1     1     2 1   
     2     1    21 1   
     3     1    22 1   
     4     1    23 1   
     5     2     3 1   
     6     2     4 1   
     7     3    24 1   
     8     3    25 1   
     9     3    26 1   
    10     4     5 1   
    11     4    27 1   
    12     4    28 1   
    13     5     6 1   
    14     5    29 1   
    15     5    30 1   
    16     6     7 1   
    17     6    31 1   
    18     6    32 1   
    19     7     8 1   
    20     7    16 1   
    21     8     9 ar  
    22     8    13 ar  
    23     9    10 ar  
    24     9    33 1   
    25    10    11 ar  
    26    10    34 1   
    27    11    12 ar  
    28    11    35 1   
    29    12    13 ar  
    30    12    36 1   
    31    13    14 1   
    32    14    15 1   
    33    15    16 ar  
    34    15    20 ar  
    35    16    17 ar  
    36    17    18 ar  
    37    17    37 1   
    38    18    19 ar  
    39    18    38 1   
    40    19    20 ar  
    41    19    39 1   
    42    20    40 1   
@<TRIPOS>SUBSTRUCTURE
     1 P2Z         1 TEMP              0 ****  ****    0 ROOT
