@<TRIPOS>MOLECULE
P30
   72    77     1     0     0
SMALL
No Charge or Current Charge


@<TRIPOS>ATOM
      1 N1         -36.9420    11.4160    -7.6420 ns         1 P30      -0.497400
      2 C3         -37.3200    11.7640    -8.9150 c          1 P30       0.672100
      3 O4         -36.5270    11.9770    -9.8180 o          1 P30      -0.595100
      4 N5         -38.7000    11.8380    -9.0420 ns         1 P30      -0.162000
      5 C7         -39.5440    12.1640   -10.1400 ca         1 P30      -0.019000
      6 C8         -41.8300    12.3810   -10.9800 ca         1 P30      -0.070000
      7 C10        -40.9330    12.0730    -9.9430 ca         1 P30      -0.138000
      8 C12        -41.3570    12.7800   -12.2480 ca         1 P30      -0.122500
      9 C13        -39.0660    12.5830   -11.3990 ca         1 P30      -0.138000
     10 C15        -39.9620    12.8910   -12.4380 ca         1 P30      -0.070000
     11 C17        -42.3040    13.1240   -13.3180 cc         1 P30       0.310500
     12 C18        -41.9270    13.1290   -14.6430 cd         1 P30      -0.183000
     13 N20        -43.0820    13.5250   -15.2900 na         1 P30      -0.057300
     14 C21        -44.1070    13.5290   -14.3580 cd         1 P30       0.474800
     15 N22        -43.6530    13.3020   -13.1330 nc         1 P30      -0.636000
     16 S23        -45.6760    12.9290   -14.9350 ss         1 P30       0.010700
     17 C24        -43.4640    12.8020   -16.4120 ca         1 P30      -0.044200
     18 C25        -44.8080    12.4400   -16.4120 ca         1 P30      -0.126000
     19 C26        -42.6400    12.4850   -17.5050 ca         1 P30      -0.058000
     20 C28        -43.1930    11.7760   -18.5900 ca         1 P30      -0.126000
     21 C30        -45.3730    11.7330   -17.4850 ca         1 P30      -0.154000
     22 C32        -44.5510    11.3970   -18.5870 ca         1 P30       0.150100
     23 O33        -45.0260    10.7060   -19.6820 os         1 P30      -0.352100
     24 C34        -46.4030    10.2860   -19.7890 c3         1 P30       0.164600
     25 C37        -46.6070     9.5540   -21.1430 c3         1 P30       0.166800
     26 N40        -46.8560    10.4210   -22.3400 n3         1 P30      -0.718600
     27 C41        -47.1780     9.6260   -23.5700 c6         1 P30       0.129800
     28 C44        -45.9110     8.9340   -24.1680 c6         1 P30       0.116100
     29 O47        -44.8760     9.9150   -24.4260 os         1 P30      -0.455000
     30 C48        -44.5020    10.6720   -23.2480 c6         1 P30       0.116100
     31 C51        -45.7530    11.3900   -22.6570 c6         1 P30       0.129800
     32 C54        -35.6820    11.2410    -7.1230 cc         1 P30       0.425900
     33 N55        -35.5460    10.9020    -5.8570 nd         1 P30      -0.438300
     34 O56        -34.1190    10.8120    -5.6770 os         1 P30      -0.087700
     35 C57        -33.5080    11.1100    -6.8700 cd         1 P30       0.210300
     36 C58        -34.4590    11.3840    -7.7980 cc         1 P30      -0.243000
     37 C60        -31.9890    11.0880    -6.9600 c3         1 P30      -0.091300
     38 C61        -31.5180    11.4540    -8.3940 c3         1 P30      -0.084433
     39 C65        -31.4730     9.6690    -6.6080 c3         1 P30      -0.084433
     40 C69        -31.4000    12.1170    -5.9600 c3         1 P30      -0.084433
     41 H1         -37.7040    11.2690    -6.9970 hn         1 P30       0.333500
     42 H2         -39.2080    11.6190    -8.1960 hn         1 P30       0.151000
     43 H3         -42.8990    12.3010   -10.7930 ha         1 P30       0.124000
     44 H4         -41.3260    11.7610    -8.9780 ha         1 P30       0.125500
     45 H5         -38.0040    12.6850   -11.5960 ha         1 P30       0.125500
     46 H6         -39.5580    13.2260   -13.3900 ha         1 P30       0.124000
     47 H7         -40.9910    12.9050   -15.1360 h4         1 P30       0.166000
     48 H8         -41.5950    12.7850   -17.5220 ha         1 P30       0.130000
     49 H9         -42.5680    11.5210   -19.4420 ha         1 P30       0.135000
     50 H10        -46.4230    11.4580   -17.4480 ha         1 P30       0.132000
     51 H11        -47.0880    11.1410   -19.7280 h1         1 P30       0.045200
     52 H12        -46.6440     9.5900   -18.9760 h1         1 P30       0.045200
     53 H13        -47.4740     8.8930   -21.0110 h1         1 P30       0.045200
     54 H14        -45.7440     8.8960   -21.3090 h1         1 P30       0.045200
     55 H16        -47.6040    10.2840   -24.3420 h1         1 P30       0.066700
     56 H17        -47.9410     8.8630   -23.3560 h1         1 P30       0.066700
     57 H18        -46.1710     8.4320   -25.1100 h1         1 P30       0.049200
     58 H19        -45.5260     8.1730   -23.4740 h1         1 P30       0.049200
     59 H20        -44.0590     9.9960   -22.5020 h1         1 P30       0.049200
     60 H21        -43.7420    11.4150   -23.5260 h1         1 P30       0.049200
     61 H22        -45.4600    11.9780   -21.7760 h1         1 P30       0.066700
     62 H23        -46.1050    12.1210   -23.4010 h1         1 P30       0.066700
     63 H24        -34.3100    11.6530    -8.8340 ha         1 P30       0.176000
     64 H25        -31.8590    12.4580    -8.6760 hc         1 P30       0.043922
     65 H26        -30.4230    11.4390    -8.4630 hc         1 P30       0.043922
     66 H27        -31.9100    10.7410    -9.1300 hc         1 P30       0.043922
     67 H28        -31.7570     9.3860    -5.5870 hc         1 P30       0.043922
     68 H29        -31.8910     8.9210    -7.2930 hc         1 P30       0.043922
     69 H30        -30.3790     9.6190    -6.6790 hc         1 P30       0.043922
     70 H31        -31.6830    11.8730    -4.9290 hc         1 P30       0.043922
     71 H32        -30.3040    12.1340    -6.0130 hc         1 P30       0.043922
     72 H33        -31.7660    13.1270    -6.1800 hc         1 P30       0.043922
@<TRIPOS>BOND
     1     1     2 1   
     2     1    32 1   
     3     1    41 1   
     4     2     3 2   
     5     2     4 1   
     6     4     5 1   
     7     4    42 1   
     8     5     7 ar  
     9     5     9 ar  
    10     6     7 ar  
    11     6     8 ar  
    12     6    43 1   
    13     7    44 1   
    14     8    10 ar  
    15     8    11 1   
    16     9    10 ar  
    17     9    45 1   
    18    10    46 1   
    19    11    12 2   
    20    11    15 1   
    21    12    13 1   
    22    12    47 1   
    23    13    14 1   
    24    13    17 1   
    25    14    15 2   
    26    14    16 1   
    27    16    18 1   
    28    17    18 ar  
    29    17    19 ar  
    30    18    21 ar  
    31    19    20 ar  
    32    19    48 1   
    33    20    22 ar  
    34    20    49 1   
    35    21    22 ar  
    36    21    50 1   
    37    22    23 1   
    38    23    24 1   
    39    24    25 1   
    40    24    51 1   
    41    24    52 1   
    42    25    26 1   
    43    25    53 1   
    44    25    54 1   
    45    26    27 1   
    46    26    31 1   
    47    27    28 1   
    48    27    55 1   
    49    27    56 1   
    50    28    29 1   
    51    28    57 1   
    52    28    58 1   
    53    29    30 1   
    54    30    31 1   
    55    30    59 1   
    56    30    60 1   
    57    31    61 1   
    58    31    62 1   
    59    32    33 2   
    60    32    36 1   
    61    33    34 1   
    62    34    35 1   
    63    35    36 2   
    64    35    37 1   
    65    36    63 1   
    66    37    38 1   
    67    37    39 1   
    68    37    40 1   
    69    38    64 1   
    70    38    65 1   
    71    38    66 1   
    72    39    67 1   
    73    39    68 1   
    74    39    69 1   
    75    40    70 1   
    76    40    71 1   
    77    40    72 1   
@<TRIPOS>SUBSTRUCTURE
     1 P30         1 TEMP              0 ****  ****    0 ROOT
