@<TRIPOS>MOLECULE
P30
   72    77     1     0     0
SMALL
abcg2


@<TRIPOS>ATOM
      1 N1         -36.6860    11.1190    -7.2070 ns         1 P30      -0.497400
      2 C3         -37.1640    11.2730    -8.4950 c          1 P30       0.672100
      3 O4         -36.4560    11.6010    -9.4360 o          1 P30      -0.595100
      4 N5         -38.5080    11.0120    -8.5900 ns         1 P30      -0.162000
      5 C7         -39.2910    11.1360    -9.7530 ca         1 P30      -0.019000
      6 C8         -41.4490    11.6300   -10.7200 ca         1 P30      -0.070000
      7 C10        -40.6190    11.5410    -9.6140 ca         1 P30      -0.138000
      8 C12        -40.9790    11.3180   -12.0000 ca         1 P30      -0.122500
      9 C13        -38.8100    10.8120   -11.0250 ca         1 P30      -0.138000
     10 C15        -39.6450    10.9110   -12.1250 ca         1 P30      -0.070000
     11 C17        -41.8630    11.4000   -13.1620 cc         1 P30       0.310500
     12 C18        -41.6740    10.8610   -14.4180 cd         1 P30      -0.183000
     13 N20        -42.8040    11.1970   -15.1340 na         1 P30      -0.057300
     14 C21        -43.6060    11.9220   -14.2910 cd         1 P30       0.474800
     15 N22        -43.0860    12.0650   -13.0990 nc         1 P30      -0.636000
     16 S23        -45.0760    12.4470   -15.0750 ss         1 P30       0.010700
     17 C24        -43.3150    11.0120   -16.4180 ca         1 P30      -0.044200
     18 C25        -44.5590    11.6370   -16.5580 ca         1 P30      -0.126000
     19 C26        -42.7570    10.3090   -17.4790 ca         1 P30      -0.058000
     20 C28        -43.4570    10.2420   -18.6710 ca         1 P30      -0.126000
     21 C30        -45.2680    11.5760   -17.7510 ca         1 P30      -0.154000
     22 C32        -44.7060    10.8660   -18.8130 ca         1 P30       0.150100
     23 O33        -45.3070    10.7130   -20.0220 os         1 P30      -0.352100
     24 C34        -46.5650    11.3610   -20.2510 c3         1 P30       0.164600
     25 C37        -47.0620    11.0210   -21.6390 c3         1 P30       0.166800
     26 N40        -46.2620    11.6230   -22.7120 n3         1 P30      -0.718600
     27 C41        -47.0530    12.0430   -23.8750 c6         1 P30       0.129800
     28 C44        -47.4950    10.8750   -24.7470 c6         1 P30       0.116100
     29 O47        -46.3650    10.1140   -25.1810 os         1 P30      -0.455000
     30 C48        -45.6060     9.6320   -24.0680 c6         1 P30       0.116100
     31 C51        -45.1480    10.7770   -23.1710 c6         1 P30       0.129800
     32 C54        -35.3980    11.3760    -6.7900 cc         1 P30       0.425900
     33 N55        -35.1100    11.1980    -5.5180 nd         1 P30      -0.438300
     34 O56        -33.7500    11.5290    -5.4040 os         1 P30      -0.087700
     35 C57        -33.2750    11.9010    -6.6110 cd         1 P30       0.210300
     36 C58        -34.2690    11.8240    -7.5340 cc         1 P30      -0.243000
     37 C60        -31.8350    12.3220    -6.6790 c3         1 P30      -0.091300
     38 C61        -31.4710    12.6520    -8.1320 c3         1 P30      -0.084433
     39 C65        -30.9400    11.1790    -6.1660 c3         1 P30      -0.084433
     40 C69        -31.6400    13.5700    -5.7960 c3         1 P30      -0.084433
     41 H1         -37.3060    10.7600    -6.4950 hn         1 P30       0.333500
     42 H2         -39.0250    10.9170    -7.7290 hn         1 P30       0.151000
     43 H3         -42.4770    11.9380   -10.5910 ha         1 P30       0.124000
     44 H4         -41.0010    11.7860    -8.6300 ha         1 P30       0.125500
     45 H5         -37.7900    10.4840   -11.1490 ha         1 P30       0.125500
     46 H6         -39.2490    10.6600   -13.1010 ha         1 P30       0.124000
     47 H7         -40.8780    10.2740   -14.8430 h4         1 P30       0.166000
     48 H8         -41.7950     9.8250   -17.3720 ha         1 P30       0.130000
     49 H9         -43.0520     9.6990   -19.5150 ha         1 P30       0.135000
     50 H10        -46.2270    12.0630   -17.8370 ha         1 P30       0.132000
     51 H11        -46.4400    12.4420   -20.1430 h1         1 P30       0.045200
     52 H12        -47.2950    11.0110   -19.5150 h1         1 P30       0.045200
     53 H13        -48.0770    11.4180   -21.7010 h1         1 P30       0.045200
     54 H14        -47.1490     9.9320   -21.7270 h1         1 P30       0.045200
     55 H16        -46.4300    12.7100   -24.4800 h1         1 P30       0.066700
     56 H17        -47.9200    12.6130   -23.5360 h1         1 P30       0.066700
     57 H18        -47.9980    11.2280   -25.6480 h1         1 P30       0.049200
     58 H19        -48.1860    10.2220   -24.1960 h1         1 P30       0.049200
     59 H20        -46.2130     8.9130   -23.5030 h1         1 P30       0.049200
     60 H21        -44.7470     9.1050   -24.4850 h1         1 P30       0.049200
     61 H22        -44.6160    10.3810   -22.3080 h1         1 P30       0.066700
     62 H23        -44.4560    11.4100   -23.7350 h1         1 P30       0.066700
     63 H24        -34.2250    12.0450    -8.5810 ha         1 P30       0.176000
     64 H25        -32.0780    13.4730    -8.5150 hc         1 P30       0.043922
     65 H26        -30.4230    12.9510    -8.1840 hc         1 P30       0.043922
     66 H27        -31.6130    11.7850    -8.7790 hc         1 P30       0.043922
     67 H28        -31.1650    10.9380    -5.1270 hc         1 P30       0.043922
     68 H29        -31.0750    10.2800    -6.7700 hc         1 P30       0.043922
     69 H30        -29.8940    11.4830    -6.2290 hc         1 P30       0.043922
     70 H31        -31.8990    13.3590    -4.7580 hc         1 P30       0.043922
     71 H32        -30.5950    13.8840    -5.8340 hc         1 P30       0.043922
     72 H33        -32.2620    14.3950    -6.1470 hc         1 P30       0.043922
@<TRIPOS>BOND
     1     1     2 1   
     2     1    32 1   
     3     1    41 1   
     4     2     3 2   
     5     2     4 1   
     6     4     5 1   
     7     4    42 1   
     8     5     7 ar  
     9     5     9 ar  
    10     6     7 ar  
    11     6     8 ar  
    12     6    43 1   
    13     7    44 1   
    14     8    10 ar  
    15     8    11 1   
    16     9    10 ar  
    17     9    45 1   
    18    10    46 1   
    19    11    12 2   
    20    11    15 1   
    21    12    13 1   
    22    12    47 1   
    23    13    14 1   
    24    13    17 1   
    25    14    15 2   
    26    14    16 1   
    27    16    18 1   
    28    17    18 ar  
    29    17    19 ar  
    30    18    21 ar  
    31    19    20 ar  
    32    19    48 1   
    33    20    22 ar  
    34    20    49 1   
    35    21    22 ar  
    36    21    50 1   
    37    22    23 1   
    38    23    24 1   
    39    24    25 1   
    40    24    51 1   
    41    24    52 1   
    42    25    26 1   
    43    25    53 1   
    44    25    54 1   
    45    26    27 1   
    46    26    31 1   
    47    27    28 1   
    48    27    55 1   
    49    27    56 1   
    50    28    29 1   
    51    28    57 1   
    52    28    58 1   
    53    29    30 1   
    54    30    31 1   
    55    30    59 1   
    56    30    60 1   
    57    31    61 1   
    58    31    62 1   
    59    32    33 2   
    60    32    36 1   
    61    33    34 1   
    62    34    35 1   
    63    35    36 2   
    64    35    37 1   
    65    36    63 1   
    66    37    38 1   
    67    37    39 1   
    68    37    40 1   
    69    38    64 1   
    70    38    65 1   
    71    38    66 1   
    72    39    67 1   
    73    39    68 1   
    74    39    69 1   
    75    40    70 1   
    76    40    71 1   
    77    40    72 1   
@<TRIPOS>SUBSTRUCTURE
     1 P30         1 TEMP              0 ****  ****    0 ROOT
