@<TRIPOS>MOLECULE
P31
   44    47     1     0     0
SMALL
bcc


@<TRIPOS>ATOM
      1 C1          -5.1560    -1.7600    -0.6130 ca         1 P31      -0.129900
      2 C2          -6.0350    -1.4890    -1.6680 ca         1 P31       0.436200
      3 N4          -6.4210    -0.2650    -1.9880 nb         1 P31      -0.675000
      4 C5          -4.6350    -0.7430     0.1640 ca         1 P31      -0.032000
      5 C7          -5.0290     0.5520    -0.1560 ca         1 P31      -0.192100
      6 C8          -5.9220     0.7070    -1.2440 ca         1 P31       0.433800
      7 N9          -6.1730     2.0350    -1.3800 na         1 P31      -0.272100
      8 C11         -4.7560     1.8580     0.3570 cc         1 P31      -0.130400
      9 C12         -3.8500     2.2020     1.4950 c3         1 P31       0.059100
     10 C15         -2.4170     1.8220     1.2270 ca         1 P31      -0.247600
     11 C16         -1.7370     0.9130     2.0210 ca         1 P31       0.451200
     12 N18         -0.4810     0.5300     1.8270 nb         1 P31      -0.739000
     13 C19          0.1950     1.0460     0.8030 ca         1 P31       0.662200
     14 C20         -0.3960     1.9710    -0.0750 ca         1 P31      -0.308300
     15 C22         -1.7020     2.3480     0.1510 ca         1 P31      -0.045000
     16 N24          1.4950     0.6370     0.6800 nu         1 P31      -0.865900
     17 C26          2.2620     0.8530    -0.5240 c3         1 P31       0.266100
     18 C29          3.6920     0.4560    -0.3010 ca         1 P31      -0.199600
     19 C30         -5.4730     2.7200    -0.4230 cd         1 P31      -0.097100
     20 C32          4.2800    -0.5600    -1.0480 ca         1 P31       0.414200
     21 N34          5.5370    -0.9450    -0.8960 nb         1 P31      -0.628000
     22 C35          6.2690    -0.3300     0.0180 ca         1 P31       0.308600
     23 C36          5.7950     0.6880     0.8270 ca         1 P31      -0.196300
     24 C38          4.4760     1.0810     0.6590 ca         1 P31      -0.074000
     25 C40          7.6780    -0.8460     0.1210 c3         1 P31       0.630600
     26 F41          8.4300    -0.1110     0.9440 f          1 P31      -0.226633
     27 F42          7.7000    -2.1040     0.5800 f          1 P31      -0.226633
     28 F43          8.2820    -0.8560    -1.0700 f          1 P31      -0.226633
     29 CL1         -4.7280    -3.4090    -0.2930 cl         1 P31      -0.102400
     30 H1          -6.4290    -2.3030    -2.2650 h4         1 P31       0.034100
     31 H2          -3.9550    -0.9510     0.9810 ha         1 P31       0.156000
     32 H3          -6.7740     2.4490    -2.0740 hn         1 P31       0.314700
     33 H4          -3.9210     3.2750     1.6930 hc         1 P31       0.053200
     34 H5          -4.1850     1.7020     2.4080 hc         1 P31       0.053200
     35 H6          -2.2410     0.4620     2.8720 h4         1 P31       0.015100
     36 H7           0.1480     2.3800    -0.9150 ha         1 P31       0.139000
     37 H8          -2.1750     3.0550    -0.5200 ha         1 P31       0.134000
     38 H9           1.7000    -0.2150     1.1810 hn         1 P31       0.434800
     39 H10          1.8560     0.3060    -1.3840 h1         1 P31       0.051200
     40 H11          2.2320     1.9130    -0.7830 h1         1 P31       0.051200
     41 H12         -5.5390     3.7950    -0.3640 h4         1 P31       0.167000
     42 H13          3.7000    -1.0810    -1.8020 h4         1 P31       0.030100
     43 H14          6.4180     1.1690     1.5660 ha         1 P31       0.163000
     44 H15          4.0650     1.8750     1.2700 ha         1 P31       0.157000
@<TRIPOS>BOND
     1     1     2 ar  
     2     1     4 ar  
     3     1    29 1   
     4     2     3 ar  
     5     2    30 1   
     6     3     6 ar  
     7     4     5 ar  
     8     4    31 1   
     9     5     6 ar  
    10     5     8 1   
    11     6     7 1   
    12     7    19 1   
    13     7    32 1   
    14     8     9 1   
    15     8    19 2   
    16     9    10 1   
    17     9    33 1   
    18     9    34 1   
    19    10    11 ar  
    20    10    15 ar  
    21    11    12 ar  
    22    11    35 1   
    23    12    13 ar  
    24    13    14 ar  
    25    13    16 1   
    26    14    15 ar  
    27    14    36 1   
    28    15    37 1   
    29    16    17 1   
    30    16    38 1   
    31    17    18 1   
    32    17    39 1   
    33    17    40 1   
    34    18    20 ar  
    35    18    24 ar  
    36    19    41 1   
    37    20    21 ar  
    38    20    42 1   
    39    21    22 ar  
    40    22    23 ar  
    41    22    25 1   
    42    23    24 ar  
    43    23    43 1   
    44    24    44 1   
    45    25    26 1   
    46    25    27 1   
    47    25    28 1   
@<TRIPOS>SUBSTRUCTURE
     1 P31         1 TEMP              0 ****  ****    0 ROOT
