@<TRIPOS>MOLECULE
P31
   44    47     1     0     0
SMALL
No Charge or Current Charge


@<TRIPOS>ATOM
      1 C1          -5.1850    -1.9200    -0.4590 ca         1 P31       0.027000
      2 C2          -6.0670    -1.7050    -1.5460 ca         1 P31       0.370900
      3 N4          -6.4760    -0.4700    -1.9480 nb         1 P31      -0.675000
      4 C5          -4.7010    -0.8070     0.2510 ca         1 P31      -0.014000
      5 C7          -5.1410     0.4500    -0.1870 ca         1 P31      -0.126800
      6 C8          -6.0000     0.5830    -1.2560 ca         1 P31       0.368500
      7 N9          -6.2520     1.9230    -1.4560 na         1 P31      -0.322400
      8 C11         -4.8240     1.7540     0.3220 cc         1 P31      -0.130400
      9 C12         -3.9020     2.0760     1.4690 c3         1 P31       0.059100
     10 C15         -2.4420     1.8080     1.1310 ca         1 P31      -0.182300
     11 C16         -1.6780     0.9020     1.8950 ca         1 P31       0.385900
     12 N18         -0.3800     0.6210     1.6390 nb         1 P31      -0.739000
     13 C19          0.1810     1.2470     0.6080 ca         1 P31       0.596900
     14 C20         -0.4800     2.1640    -0.2190 ca         1 P31      -0.225000
     15 C22         -1.8260     2.4570     0.0460 ca         1 P31      -0.027000
     16 N24          1.4850     0.8770     0.4520 nu         1 P31      -0.921100
     17 C26          2.4800     1.4600    -0.4470 c3         1 P31       0.266100
     18 C29          3.8160     0.7690    -0.2580 ca         1 P31      -0.134300
     19 C30         -5.5200     2.6460    -0.4810 cd         1 P31      -0.147100
     20 C32          4.2710    -0.1710    -1.2000 ca         1 P31       0.348900
     21 N34          5.4570    -0.8160    -1.0890 nb         1 P31      -0.628000
     22 C35          6.2480    -0.5420    -0.0160 ca         1 P31       0.243300
     23 C36          5.8610     0.3900     0.9710 ca         1 P31      -0.113000
     24 C38          4.6310     1.0570     0.8520 ca         1 P31      -0.056000
     25 C40          7.5990    -1.2760     0.1120 c3         1 P31       0.266700
     26 F41          8.6350    -0.4060     0.1330 f          1 P31      -0.105333
     27 F42          7.6680    -1.9920     1.2590 f          1 P31      -0.105333
     28 F43          7.8400    -2.1430    -0.9020 f          1 P31      -0.105333
     29 Cl1         -4.6970    -3.5490     0.0050 cl         1 P31      -0.194000
     30 H1          -6.4570    -2.5500    -2.1130 h4         1 P31       0.034100
     31 H2          -4.0230    -0.9210     1.0920 ha         1 P31       0.138000
     32 H3          -6.8520     2.3020    -2.1780 hn         1 P31       0.365000
     33 H4          -4.0230     3.1290     1.7510 hc         1 P31       0.053200
     34 H5          -4.2070     1.4960     2.3480 hc         1 P31       0.053200
     35 H6          -2.1210     0.3790     2.7430 h4         1 P31       0.015100
     36 H7           0.0330     2.6390    -1.0480 ha         1 P31       0.121000
     37 H8          -2.3750     3.1630    -0.5740 ha         1 P31       0.116000
     38 H9           1.8020     0.2320     1.1700 hn         1 P31       0.490000
     39 H10          2.1530     1.3570    -1.4920 h1         1 P31       0.051200
     40 H11          2.5950     2.5330    -0.2390 h1         1 P31       0.051200
     41 H12         -5.5440     3.7330    -0.4320 h4         1 P31       0.217000
     42 H13          3.6680    -0.4200    -2.0730 h4         1 P31       0.030100
     43 H14          6.5120     0.5910     1.8180 ha         1 P31       0.145000
     44 H15          4.3180     1.7800     1.6040 ha         1 P31       0.139000
@<TRIPOS>BOND
     1     1     2 ar  
     2     1     4 ar  
     3     1    29 1   
     4     2     3 ar  
     5     2    30 1   
     6     3     6 ar  
     7     4     5 ar  
     8     4    31 1   
     9     5     6 ar  
    10     5     8 1   
    11     6     7 1   
    12     7    19 1   
    13     7    32 1   
    14     8     9 1   
    15     8    19 2   
    16     9    10 1   
    17     9    33 1   
    18     9    34 1   
    19    10    11 ar  
    20    10    15 ar  
    21    11    12 ar  
    22    11    35 1   
    23    12    13 ar  
    24    13    14 ar  
    25    13    16 1   
    26    14    15 ar  
    27    14    36 1   
    28    15    37 1   
    29    16    17 1   
    30    16    38 1   
    31    17    18 1   
    32    17    39 1   
    33    17    40 1   
    34    18    20 ar  
    35    18    24 ar  
    36    19    41 1   
    37    20    21 ar  
    38    20    42 1   
    39    21    22 ar  
    40    22    23 ar  
    41    22    25 1   
    42    23    24 ar  
    43    23    43 1   
    44    24    44 1   
    45    25    26 1   
    46    25    27 1   
    47    25    28 1   
@<TRIPOS>SUBSTRUCTURE
     1 P31         1 TEMP              0 ****  ****    0 ROOT
