@<TRIPOS>MOLECULE
P32
   42    43     1     0     0
SMALL
bcc


@<TRIPOS>ATOM
      1 O2          10.1080    22.9190    25.5000 oh         1 P32      -0.605800
      2 C10          9.3420    22.0350    24.7200 c3         1 P32       0.148100
      3 N3           5.6130    15.9090    20.1700 n1         1 P32      -0.331800
      4 C11          8.3640    22.8370    23.8600 c3         1 P32       0.120800
      5 N2           7.7000    23.7940    24.7290 n7         1 P32      -0.841200
      6 C12          7.0530    24.9540    24.1020 c3         1 P32       0.196200
      7 C15          6.3220    25.6960    25.2200 c3         1 P32      -0.098100
      8 C13          6.0490    24.5490    23.0180 c3         1 P32      -0.098100
      9 C9          10.3100    21.2120    23.8880 c3         1 P32       0.133400
     10 O1           9.5440    20.2520    23.1810 os         1 P32      -0.328900
     11 C4          10.1650    19.3980    22.3540 ca         1 P32       0.175100
     12 C5          11.5370    19.3710    22.0970 ca         1 P32      -0.204000
     13 C6          12.0770    18.4370    21.2130 ca         1 P32      -0.091000
     14 C7          11.2890    17.5040    20.5570 ca         1 P32      -0.109000
     15 C8           9.9280    17.5440    20.8240 ca         1 P32       0.114400
     16 C3           9.3680    18.4690    21.7020 ca         1 P32      -0.157300
     17 N1           8.9470    16.7040    20.2810 ne         1 P32      -0.488100
     18 C1           7.8290    17.0750    20.7850 cf         1 P32       0.423200
     19 C2           7.9010    18.2230    21.7460 c5         1 P32      -0.100400
     20 C16          6.6110    16.4160    20.4360 ch         1 P32       0.208600
     21 C14          8.1140    25.8770    23.5050 c3         1 P32      -0.098100
     22 H1           7.5260    17.9410    22.7350 hc         1 P32       0.096700
     23 H2           7.2970    19.0700    21.4060 hc         1 P32       0.096700
     24 H5          12.2060    20.0730    22.5760 ha         1 P32       0.142000
     25 H6          13.1450    18.4500    21.0390 ha         1 P32       0.137000
     26 H7          11.7110    16.7810    19.8730 ha         1 P32       0.156000
     27 H9C1        11.0410    20.7170    24.5380 h1         1 P32       0.051700
     28 H9C2        10.8570    21.8640    23.1950 h1         1 P32       0.051700
     29 H10          8.7660    21.3480    25.3610 h1         1 P32       0.043700
     30 HA           9.4970    23.6570    25.6680 ho         1 P32       0.442000
     31 H111         8.9320    23.3790    23.0990 h1         1 P32       0.048700
     32 H112         7.6800    22.1630    23.3330 h1         1 P32       0.048700
     33 HB           7.0080    23.3000    25.2840 hn         1 P32       0.360800
     34 H131         5.2620    23.9110    23.4290 hc         1 P32       0.039700
     35 H132         5.5710    25.4280    22.5820 hc         1 P32       0.039700
     36 H133         6.5330    24.0020    22.2070 hc         1 P32       0.039700
     37 H141         7.6560    26.8110    23.1760 hc         1 P32       0.039700
     38 H142         8.8800    26.1160    24.2450 hc         1 P32       0.039700
     39 H143         8.6090    25.4400    22.6360 hc         1 P32       0.039700
     40 H151         5.5690    25.0570    25.6880 hc         1 P32       0.039700
     41 H152         7.0180    26.0200    25.9950 hc         1 P32       0.039700
     42 H153         5.8100    26.5770    24.8310 hc         1 P32       0.039700
@<TRIPOS>BOND
     1     1     2 1   
     2     1    30 1   
     3     2     4 1   
     4     2     9 1   
     5     2    29 1   
     6     3    20 3   
     7     4     5 1   
     8     4    31 1   
     9     4    32 1   
    10     5     6 1   
    11     5    33 1   
    12     6     7 1   
    13     6     8 1   
    14     6    21 1   
    15     7    40 1   
    16     7    41 1   
    17     7    42 1   
    18     8    34 1   
    19     8    35 1   
    20     8    36 1   
    21     9    10 1   
    22     9    27 1   
    23     9    28 1   
    24    10    11 1   
    25    11    12 ar  
    26    11    16 ar  
    27    12    13 ar  
    28    12    24 1   
    29    13    14 ar  
    30    13    25 1   
    31    14    15 ar  
    32    14    26 1   
    33    15    16 ar  
    34    15    17 1   
    35    16    19 1   
    36    17    18 2   
    37    18    19 1   
    38    18    20 1   
    39    19    22 1   
    40    19    23 1   
    41    21    37 1   
    42    21    38 1   
    43    21    39 1   
@<TRIPOS>SUBSTRUCTURE
     1 P32         1 TEMP              0 ****  ****    0 ROOT
