@<TRIPOS>MOLECULE
P32
   42    43     1     0     0
SMALL
No Charge or Current Charge


@<TRIPOS>ATOM
      1 O2           9.9710    22.9250    25.6800 oh         1 P32      -0.668000
      2 C10          9.3200    21.9520    24.8590 c3         1 P32       0.171300
      3 N3           5.2770    16.7040    20.1590 n1         1 P32      -0.421000
      4 C11          8.3170    22.7530    23.9880 c3         1 P32       0.120800
      5 N2           7.7560    23.8930    24.7860 n7         1 P32      -0.896400
      6 C12          7.0120    24.9560    24.0760 c3         1 P32       0.196200
      7 C15          6.4860    25.9160    25.1670 c3         1 P32      -0.098100
      8 C13          5.8210    24.3420    23.2990 c3         1 P32      -0.098100
      9 C9          10.3450    21.1350    24.0340 c3         1 P32       0.156600
     10 O1           9.6210    20.1910    23.2210 os         1 P32      -0.352100
     11 C4          10.2610    19.3240    22.3600 ca         1 P32       0.175100
     12 C5          11.6700    19.2720    22.2200 ca         1 P32      -0.186000
     13 C6          12.2620    18.3580    21.3170 ca         1 P32      -0.073000
     14 C7          11.4520    17.4950    20.5520 ca         1 P32      -0.091000
     15 C8          10.0650    17.5770    20.7190 ca         1 P32       0.114400
     16 C3           9.4850    18.4510    21.5840 ca         1 P32      -0.157300
     17 N1           9.0750    16.8470    20.0910 ne         1 P32      -0.488100
     18 C1           7.8350    17.1380    20.4450 cf         1 P32       0.423200
     19 C2           7.9820    18.2970    21.5330 c5         1 P32      -0.100400
     20 C16          6.4290    16.8780    20.2870 ch         1 P32       0.297800
     21 C14          7.9630    25.7220    23.1240 c3         1 P32      -0.098100
     22 H1           7.5650    18.0030    22.5030 hc         1 P32       0.096700
     23 H2           7.4830    19.2200    21.2170 hc         1 P32       0.096700
     24 H5          12.3170    19.9260    22.7980 ha         1 P32       0.124000
     25 H6          13.3450    18.3200    21.2110 ha         1 P32       0.119000
     26 H7          11.8880    16.7860    19.8530 ha         1 P32       0.138000
     27 H9C1        11.0240    20.6110    24.7200 h1         1 P32       0.051700
     28 H9C2        10.9350    21.8150    23.4070 h1         1 P32       0.051700
     29 H10          8.7490    21.2610    25.4940 h1         1 P32       0.043700
     30 HA           9.3280    23.6820    25.5820 ho         1 P32       0.481000
     31 H111         8.8580    23.1220    23.1060 h1         1 P32       0.048700
     32 H112         7.5250    22.0800    23.6310 h1         1 P32       0.048700
     33 HB           7.1180    23.4980    25.4900 hn         1 P32       0.416000
     34 H131         5.1830    23.7450    23.9610 hc         1 P32       0.039700
     35 H132         5.2020    25.1330    22.8570 hc         1 P32       0.039700
     36 H133         6.1650    23.6980    22.4810 hc         1 P32       0.039700
     37 H141         7.4580    26.5990    22.7000 hc         1 P32       0.039700
     38 H142         8.8550    26.0720    23.6590 hc         1 P32       0.039700
     39 H143         8.2880    25.0960    22.2860 hc         1 P32       0.039700
     40 H151         5.8190    25.3950    25.8640 hc         1 P32       0.039700
     41 H152         7.3140    26.3460    25.7440 hc         1 P32       0.039700
     42 H153         5.9220    26.7440    24.7180 hc         1 P32       0.039700
@<TRIPOS>BOND
     1     1     2 1   
     2     1    30 1   
     3     2     4 1   
     4     2     9 1   
     5     2    29 1   
     6     3    20 3   
     7     4     5 1   
     8     4    31 1   
     9     4    32 1   
    10     5     6 1   
    11     5    33 1   
    12     6     7 1   
    13     6     8 1   
    14     6    21 1   
    15     7    40 1   
    16     7    41 1   
    17     7    42 1   
    18     8    34 1   
    19     8    35 1   
    20     8    36 1   
    21     9    10 1   
    22     9    27 1   
    23     9    28 1   
    24    10    11 1   
    25    11    12 ar  
    26    11    16 ar  
    27    12    13 ar  
    28    12    24 1   
    29    13    14 ar  
    30    13    25 1   
    31    14    15 ar  
    32    14    26 1   
    33    15    16 ar  
    34    15    17 1   
    35    16    19 1   
    36    17    18 2   
    37    18    19 1   
    38    18    20 1   
    39    19    22 1   
    40    19    23 1   
    41    21    37 1   
    42    21    38 1   
    43    21    39 1   
@<TRIPOS>SUBSTRUCTURE
     1 P32         1 TEMP              0 ****  ****    0 ROOT
