@<TRIPOS>MOLECULE
P33
   52    51     1     0     0
SMALL
abcg2


@<TRIPOS>ATOM
      1 O22          0.1610    -0.6820     9.0120 oh         1 P33      -0.709000
      2 C21         -1.0080    -0.8040     8.2340 c3         1 P33       0.163600
      3 C20         -1.1630     0.4170     7.3640 c3         1 P33       0.160600
      4 O19         -0.1180     0.4770     6.4260 os         1 P33      -0.433500
      5 C18         -0.2250     1.5880     5.5730 c3         1 P33       0.162100
      6 C17          0.9420     1.6190     4.6210 c3         1 P33       0.161600
      7 O16          0.8980     0.5020     3.7690 os         1 P33      -0.434000
      8 C15          1.9420     0.5040     2.8300 c3         1 P33       0.161600
      9 C14          1.8780    -0.7420     1.9850 c3         1 P33       0.161600
     10 O13          0.7010    -0.7430     1.2180 os         1 P33      -0.434000
     11 C12          0.6110    -1.8620     0.3750 c3         1 P33       0.162100
     12 C11         -0.6980    -1.8450    -0.3710 c3         1 P33       0.162100
     13 O10         -0.7480    -0.7350    -1.2310 os         1 P33      -0.434000
     14 C9          -1.9200    -0.7100    -2.0060 c3         1 P33       0.161600
     15 C8          -1.9540     0.5350    -2.8520 c3         1 P33       0.161600
     16 O7          -0.9000     0.5150    -3.7820 os         1 P33      -0.434000
     17 C6          -0.9230     1.6280    -4.6390 c3         1 P33       0.161600
     18 C5           0.2550     1.5810    -5.5770 c3         1 P33       0.162100
     19 O4           0.1480     0.4680    -6.4260 os         1 P33      -0.433500
     20 C3           1.1990     0.3990    -7.3570 c3         1 P33       0.160600
     21 C2           1.0440    -0.8230    -8.2240 c3         1 P33       0.163600
     22 O1          -0.1210    -0.7000    -9.0080 oh         1 P33      -0.709000
     23 H22          0.2370    -1.4690     9.5600 ho         1 P33       0.499000
     24 H211        -1.9090    -0.8770     8.8560 h1         1 P33       0.025200
     25 H212        -0.9850    -1.7010     7.6010 h1         1 P33       0.025200
     26 H201        -1.1810     1.3220     7.9880 h1         1 P33       0.025700
     27 H202        -2.1390     0.3590     6.8620 h1         1 P33       0.025700
     28 H181        -0.2220     2.5270     6.1440 h1         1 P33       0.027450
     29 H182        -1.1690     1.5630     5.0100 h1         1 P33       0.027450
     30 H171         1.8870     1.6460     5.1840 h1         1 P33       0.028200
     31 H172         0.8890     2.5560     4.0480 h1         1 P33       0.028200
     32 H151         2.9220     0.5250     3.3280 h1         1 P33       0.027700
     33 H152         1.8930     1.3960     2.1890 h1         1 P33       0.027700
     34 H141         1.9300    -1.6350     2.6250 h1         1 P33       0.027200
     35 H142         2.7690    -0.7600     1.3420 h1         1 P33       0.027200
     36 H121         0.6570    -2.7970     0.9520 h1         1 P33       0.027200
     37 H122         1.4480    -1.8870    -0.3370 h1         1 P33       0.027200
     38 H111        -1.5380    -1.8280     0.3390 h1         1 P33       0.027200
     39 H112        -0.7770    -2.7860    -0.9340 h1         1 P33       0.027200
     40 H91         -2.8160    -0.7090    -1.3690 h1         1 P33       0.027200
     41 H92         -1.9860    -1.6030    -2.6440 h1         1 P33       0.027200
     42 H81         -1.8960     1.4270    -2.2120 h1         1 P33       0.027700
     43 H82         -2.9280     0.5730    -3.3600 h1         1 P33       0.027700
     44 H61         -0.8670     2.5670    -4.0700 h1         1 P33       0.028200
     45 H62         -1.8600     1.6620    -5.2130 h1         1 P33       0.028200
     46 H51          1.1920     1.5510    -5.0020 h1         1 P33       0.027450
     47 H52          0.2680     2.5190    -6.1510 h1         1 P33       0.027450
     48 H31          2.1720     0.3380    -6.8490 h1         1 P33       0.025700
     49 H32          1.2270     1.3030    -7.9840 h1         1 P33       0.025700
     50 H21          1.0160    -1.7190    -7.5900 h1         1 P33       0.025200
     51 H22A         1.9470    -0.9010    -8.8420 h1         1 P33       0.025200
     52 HO1         -0.1980    -1.4880    -9.5530 ho         1 P33       0.499000
@<TRIPOS>BOND
     1     1     2 1   
     2     1    23 1   
     3     2     3 1   
     4     2    24 1   
     5     2    25 1   
     6     3     4 1   
     7     3    26 1   
     8     3    27 1   
     9     4     5 1   
    10     5     6 1   
    11     5    28 1   
    12     5    29 1   
    13     6     7 1   
    14     6    30 1   
    15     6    31 1   
    16     7     8 1   
    17     8     9 1   
    18     8    32 1   
    19     8    33 1   
    20     9    10 1   
    21     9    34 1   
    22     9    35 1   
    23    10    11 1   
    24    11    12 1   
    25    11    36 1   
    26    11    37 1   
    27    12    13 1   
    28    12    38 1   
    29    12    39 1   
    30    13    14 1   
    31    14    15 1   
    32    14    40 1   
    33    14    41 1   
    34    15    16 1   
    35    15    42 1   
    36    15    43 1   
    37    16    17 1   
    38    17    18 1   
    39    17    44 1   
    40    17    45 1   
    41    18    19 1   
    42    18    46 1   
    43    18    47 1   
    44    19    20 1   
    45    20    21 1   
    46    20    48 1   
    47    20    49 1   
    48    21    22 1   
    49    21    50 1   
    50    21    51 1   
    51    22    52 1   
@<TRIPOS>SUBSTRUCTURE
     1 P33         1 TEMP              0 ****  ****    0 ROOT
