@<TRIPOS>MOLECULE
P33
   52    51     1     0     0
SMALL
No Charge or Current Charge


@<TRIPOS>ATOM
      1 O22          0.5330    -0.6300     9.6840 oh         1 P33      -0.709000
      2 C21         -0.4440    -1.2710     8.8400 c3         1 P33       0.163600
      3 C20         -1.1820    -0.2460     7.9360 c3         1 P33       0.160600
      4 O19         -0.2570     0.2850     6.9650 os         1 P33      -0.433500
      5 C18         -0.8280     1.2590     6.0680 c3         1 P33       0.162100
      6 C17          0.2600     1.7330     5.0750 c3         1 P33       0.161600
      7 O16          0.5370     0.6730     4.1380 os         1 P33      -0.434000
      8 C15          1.5470     0.9900     3.1600 c3         1 P33       0.161600
      9 C14          1.7340    -0.2220     2.2160 c3         1 P33       0.161600
     10 O13          0.5830    -0.3310     1.3560 os         1 P33      -0.434000
     11 C12          0.6320    -1.4350     0.4300 c3         1 P33       0.162100
     12 C11         -0.6520    -1.4270    -0.4340 c3         1 P33       0.162100
     13 O10         -0.5880    -0.3250    -1.3610 os         1 P33      -0.434000
     14 C9          -1.7380    -0.2020    -2.2210 c3         1 P33       0.161600
     15 C8          -1.5350     1.0060    -3.1670 c3         1 P33       0.161600
     16 O7          -0.5300     0.6750    -4.1450 os         1 P33      -0.434000
     17 C6          -0.2390     1.7300    -5.0830 c3         1 P33       0.161600
     18 C5           0.8430     1.2400    -6.0760 c3         1 P33       0.162100
     19 O4           0.2600     0.2720    -6.9710 os         1 P33      -0.433500
     20 C3           1.1770    -0.2730    -7.9410 c3         1 P33       0.160600
     21 C2           0.4260    -1.2890    -8.8430 c3         1 P33       0.163600
     22 O1          -0.5420    -0.6370    -9.6890 oh         1 P33      -0.709000
     23 H22          0.9970    -1.3460    10.1780 ho         1 P33       0.499000
     24 H211        -1.1910    -1.7870     9.4580 h1         1 P33       0.025200
     25 H212         0.0340    -2.0280     8.2040 h1         1 P33       0.025200
     26 H201        -1.6020     0.5560     8.5570 h1         1 P33       0.025700
     27 H202        -2.0130    -0.7550     7.4300 h1         1 P33       0.025700
     28 H181        -1.1930     2.1260     6.6340 h1         1 P33       0.027450
     29 H182        -1.6740     0.8350     5.5110 h1         1 P33       0.027450
     30 H171         1.1650     2.0160     5.6290 h1         1 P33       0.028200
     31 H172        -0.1070     2.6210     4.5450 h1         1 P33       0.028200
     32 H151         2.5030     1.2020     3.6570 h1         1 P33       0.027700
     33 H152         1.2640     1.8730     2.5720 h1         1 P33       0.027700
     34 H141         1.8700    -1.1340     2.8120 h1         1 P33       0.027200
     35 H142         2.6420    -0.0670     1.6170 h1         1 P33       0.027200
     36 H121         0.6850    -2.3850     0.9770 h1         1 P33       0.027200
     37 H122         1.5130    -1.3650    -0.2210 h1         1 P33       0.027200
     38 H111        -1.5320    -1.3450     0.2170 h1         1 P33       0.027200
     39 H112        -0.7170    -2.3770    -0.9790 h1         1 P33       0.027200
     40 H91         -2.6430    -0.0340    -1.6230 h1         1 P33       0.027200
     41 H92         -1.8860    -1.1130    -2.8160 h1         1 P33       0.027200
     42 H81         -1.2400     1.8860    -2.5800 h1         1 P33       0.027700
     43 H82         -2.4880     1.2310    -3.6640 h1         1 P33       0.027700
     44 H61          0.1410     2.6130    -4.5540 h1         1 P33       0.028200
     45 H62         -1.1400     2.0240    -5.6380 h1         1 P33       0.028200
     46 H51          1.6830     0.8050    -5.5180 h1         1 P33       0.027450
     47 H52          1.2190     2.1020    -6.6420 h1         1 P33       0.027450
     48 H31          2.0020    -0.7910    -7.4340 h1         1 P33       0.025700
     49 H32          1.6080     0.5230    -8.5630 h1         1 P33       0.025700
     50 H21         -0.0620    -2.0380    -8.2060 h1         1 P33       0.025200
     51 H22A         1.1660    -1.8150    -9.4610 h1         1 P33       0.025200
     52 HO1         -1.0150    -1.3470   -10.1820 ho         1 P33       0.499000
@<TRIPOS>BOND
     1     1     2 1   
     2     1    23 1   
     3     2     3 1   
     4     2    24 1   
     5     2    25 1   
     6     3     4 1   
     7     3    26 1   
     8     3    27 1   
     9     4     5 1   
    10     5     6 1   
    11     5    28 1   
    12     5    29 1   
    13     6     7 1   
    14     6    30 1   
    15     6    31 1   
    16     7     8 1   
    17     8     9 1   
    18     8    32 1   
    19     8    33 1   
    20     9    10 1   
    21     9    34 1   
    22     9    35 1   
    23    10    11 1   
    24    11    12 1   
    25    11    36 1   
    26    11    37 1   
    27    12    13 1   
    28    12    38 1   
    29    12    39 1   
    30    13    14 1   
    31    14    15 1   
    32    14    40 1   
    33    14    41 1   
    34    15    16 1   
    35    15    42 1   
    36    15    43 1   
    37    16    17 1   
    38    17    18 1   
    39    17    44 1   
    40    17    45 1   
    41    18    19 1   
    42    18    46 1   
    43    18    47 1   
    44    19    20 1   
    45    20    21 1   
    46    20    48 1   
    47    20    49 1   
    48    21    22 1   
    49    21    50 1   
    50    21    51 1   
    51    22    52 1   
@<TRIPOS>SUBSTRUCTURE
     1 P33         1 TEMP              0 ****  ****    0 ROOT
