@<TRIPOS>MOLECULE
P34
   39    41     1     0     0
SMALL
bcc


@<TRIPOS>ATOM
      1 CAA          6.8660    -0.5720    -0.4470 c3         1 P34       0.146100
      2 N            5.4970    -0.7330    -0.0050 n3         1 P34      -0.687600
      3 CAB          5.4160    -0.7630     1.4410 c3         1 P34       0.146100
      4 CA           4.6520     0.2890    -0.5640 c3         1 P34       0.085800
      5 C            3.1740    -0.0380    -0.4150 c          1 P34       0.670100
      6 O            2.7440    -1.1750    -0.4750 o          1 P34      -0.557100
      7 NAM          2.4000     1.0640    -0.2580 ns         1 P34      -0.477100
      8 CAP          1.0070     1.1690    -0.1860 ca         1 P34       0.042600
      9 CAK          0.1370     0.0910    -0.1750 ca         1 P34      -0.105000
     10 CAU         -1.2480     0.2830    -0.0910 ca         1 P34      -0.060000
     11 CAT         -2.2000    -0.8220    -0.0700 ca         1 P34       0.018000
     12 CAI         -1.8030    -2.1640    -0.1400 ca         1 P34      -0.131000
     13 CAF         -2.7340    -3.1820    -0.1140 ca         1 P34      -0.099000
     14 CAE         -4.0950    -2.8940    -0.0190 ca         1 P34      -0.142000
     15 CAH         -4.5080    -1.5810     0.0480 ca         1 P34      -0.070000
     16 CAS         -3.5730    -0.5430     0.0240 ca         1 P34      -0.155600
     17 CAQ         -4.0700     0.8400     0.1000 c          1 P34       0.720100
     18 OAD         -5.2560     1.1300     0.1810 o          1 P34      -0.630500
     19 NAN         -3.1100     1.7990     0.0740 ns         1 P34      -0.447100
     20 CAR         -1.7500     1.5830    -0.0150 ca         1 P34       0.068600
     21 CAJ         -0.8760     2.6710    -0.0280 ca         1 P34      -0.153000
     22 CAG          0.4790     2.4660    -0.1130 ca         1 P34      -0.139000
     23 HAA1         7.4800    -1.3800    -0.0460 h1         1 P34       0.035200
     24 HAA2         6.9200    -0.6210    -1.5360 h1         1 P34       0.035200
     25 HAA3         7.3180     0.3800    -0.1290 h1         1 P34       0.035200
     26 HAB1         4.3980    -0.9770     1.7680 h1         1 P34       0.035200
     27 HAB2         6.0550    -1.5570     1.8290 h1         1 P34       0.035200
     28 HAB3         5.7300     0.1830     1.9090 h1         1 P34       0.035200
     29 HA1          4.8690     1.2890    -0.1470 h1         1 P34       0.046200
     30 HA2          4.8440     0.3630    -1.6400 h1         1 P34       0.046200
     31 HAM          2.8930     1.9420    -0.1960 hn         1 P34       0.314500
     32 HAK          0.5320    -0.9090    -0.2280 ha         1 P34       0.171000
     33 HAI         -0.7570    -2.4220    -0.2180 ha         1 P34       0.144000
     34 HAF         -2.4010    -4.2100    -0.1690 ha         1 P34       0.135000
     35 HAE         -4.8220    -3.6950     0.0020 ha         1 P34       0.137000
     36 HAH         -5.5610    -1.3460     0.1210 ha         1 P34       0.156000
     37 HAN         -3.4310     2.7570     0.1310 hn         1 P34       0.326500
     38 HAJ         -1.2650     3.6790     0.0320 ha         1 P34       0.138000
     39 HAG          1.1440     3.3210    -0.1230 ha         1 P34       0.130000
@<TRIPOS>BOND
     1     1     2 1   
     2     1    23 1   
     3     1    24 1   
     4     1    25 1   
     5     2     3 1   
     6     2     4 1   
     7     3    26 1   
     8     3    27 1   
     9     3    28 1   
    10     4     5 1   
    11     4    29 1   
    12     4    30 1   
    13     5     6 2   
    14     5     7 1   
    15     7     8 1   
    16     7    31 1   
    17     8     9 ar  
    18     8    22 ar  
    19     9    10 ar  
    20     9    32 1   
    21    10    11 1   
    22    10    20 ar  
    23    11    12 ar  
    24    11    16 ar  
    25    12    13 ar  
    26    12    33 1   
    27    13    14 ar  
    28    13    34 1   
    29    14    15 ar  
    30    14    35 1   
    31    15    16 ar  
    32    15    36 1   
    33    16    17 1   
    34    17    18 2   
    35    17    19 1   
    36    19    20 1   
    37    19    37 1   
    38    20    21 ar  
    39    21    22 ar  
    40    21    38 1   
    41    22    39 1   
@<TRIPOS>SUBSTRUCTURE
     1 P34         1 TEMP              0 ****  ****    0 ROOT
