@<TRIPOS>MOLECULE
P34
   39    41     1     0     0
SMALL
No Charge or Current Charge


@<TRIPOS>ATOM
      1 CAA          7.1140    -0.3150    -0.3160 c3         1 P34       0.146100
      2 N            5.7090    -0.7200    -0.0850 n3         1 P34      -0.687600
      3 CAB          5.4840    -1.2010     1.2990 c3         1 P34       0.146100
      4 CA           4.7280     0.3340    -0.5120 c3         1 P34       0.085800
      5 C            3.2100    -0.0250    -0.5510 c          1 P34       0.603100
      6 O            2.8010    -1.1650    -0.7580 o          1 P34      -0.557100
      7 NAM          2.3770     1.0710    -0.3460 ns         1 P34      -0.151000
      8 CAP          0.9610     1.2040    -0.2700 ca         1 P34      -0.050000
      9 CAK          0.0760     0.1030    -0.1830 ca         1 P34      -0.087000
     10 CAU         -1.3310     0.2910    -0.1050 ca         1 P34      -0.060000
     11 CAT         -2.2650    -0.7920    -0.0200 ca         1 P34       0.018000
     12 CAI         -1.8580    -2.1530    -0.0130 ca         1 P34      -0.113000
     13 CAF         -2.7970    -3.1940     0.0720 ca         1 P34      -0.081000
     14 CAE         -4.1630    -2.9060     0.1500 ca         1 P34      -0.124000
     15 CAH         -4.5950    -1.5730     0.1440 ca         1 P34      -0.052000
     16 CAS         -3.6620    -0.5160     0.0590 ca         1 P34      -0.155600
     17 CAQ         -4.1670     0.9020     0.0540 c          1 P34       0.577600
     18 OAD         -5.3490     1.2050     0.1190 o          1 P34      -0.555000
     19 NAN         -3.1950     1.8510    -0.0320 ns         1 P34      -0.380100
     20 CAR         -1.8170     1.6200    -0.1100 ca         1 P34       0.068600
     21 CAJ         -0.9440     2.7140    -0.1860 ca         1 P34      -0.135000
     22 CAG          0.4390     2.5070    -0.2640 ca         1 P34      -0.121000
     23 HAA1         7.8010    -1.1360    -0.0710 h1         1 P34       0.035200
     24 HAA2         7.2730    -0.0460    -1.3680 h1         1 P34       0.035200
     25 HAA3         7.3790     0.5520     0.3050 h1         1 P34       0.035200
     26 HAB1         4.4650    -1.5920     1.4210 h1         1 P34       0.035200
     27 HAB2         6.1830    -2.0120     1.5460 h1         1 P34       0.035200
     28 HAB3         5.6300    -0.3900     2.0250 h1         1 P34       0.035200
     29 HA1          4.8340     1.2090     0.1440 h1         1 P34       0.046200
     30 HA2          4.9750     0.6790    -1.5250 h1         1 P34       0.046200
     31 HAM          2.8720     1.9450    -0.2230 hn         1 P34       0.148000
     32 HAK          0.4950    -0.8910    -0.1640 ha         1 P34       0.153000
     33 HAI         -0.8170    -2.4450    -0.0730 ha         1 P34       0.126000
     34 HAF         -2.4600    -4.2280     0.0750 ha         1 P34       0.117000
     35 HAE         -4.8890    -3.7140     0.2160 ha         1 P34       0.119000
     36 HAH         -5.6610    -1.3630     0.2050 ha         1 P34       0.138000
     37 HAN         -3.5100     2.8120    -0.0370 hn         1 P34       0.326500
     38 HAJ         -1.3360     3.7290    -0.1850 ha         1 P34       0.120000
     39 HAG          1.1060     3.3640    -0.3230 ha         1 P34       0.112000
@<TRIPOS>BOND
     1     1     2 1   
     2     1    23 1   
     3     1    24 1   
     4     1    25 1   
     5     2     3 1   
     6     2     4 1   
     7     3    26 1   
     8     3    27 1   
     9     3    28 1   
    10     4     5 1   
    11     4    29 1   
    12     4    30 1   
    13     5     6 2   
    14     5     7 1   
    15     7     8 1   
    16     7    31 1   
    17     8     9 ar  
    18     8    22 ar  
    19     9    10 ar  
    20     9    32 1   
    21    10    11 1   
    22    10    20 ar  
    23    11    12 ar  
    24    11    16 ar  
    25    12    13 ar  
    26    12    33 1   
    27    13    14 ar  
    28    13    34 1   
    29    14    15 ar  
    30    14    35 1   
    31    15    16 ar  
    32    15    36 1   
    33    16    17 1   
    34    17    18 2   
    35    17    19 1   
    36    19    20 1   
    37    19    37 1   
    38    20    21 ar  
    39    21    22 ar  
    40    21    38 1   
    41    22    39 1   
@<TRIPOS>SUBSTRUCTURE
     1 P34         1 TEMP              0 ****  ****    0 ROOT
