@<TRIPOS>MOLECULE
P35
   50    53     1     0     0
SMALL
abcg2


@<TRIPOS>ATOM
      1 C26          3.9600    -0.5800    -1.1520 ca         1 P35       0.059000
      2 C21         -1.4570     0.2850     1.6230 ca         1 P35      -0.043000
      3 C10         -0.5570     0.6800    -0.5560 ca         1 P35      -0.049300
      4 C11         -1.7310     0.2720    -1.1550 ca         1 P35      -0.172000
      5 C12         -2.8060    -0.1510    -0.3550 ca         1 P35       0.331000
      6 C14         -5.2070    -0.7820    -0.2610 c6         1 P35       0.221500
      7 C15         -6.1640    -1.5980    -1.1230 c6         1 P35      -0.095900
      8 C19         -5.8730     0.5330     0.1540 c6         1 P35      -0.095900
      9 C20         -2.6450    -0.1340     1.0420 ca         1 P35      -0.184000
     10 C18         -7.2150     0.2620     0.8200 c6         1 P35       0.162300
     11 O01          5.4990    -3.4980     0.3630 oh         1 P35      -0.520100
     12 C02          4.9650    -2.2850     0.1910 ca         1 P35       0.232100
     13 C03          4.9040    -1.4530     1.3010 ca         1 P35      -0.225000
     14 C04          4.3680    -0.1740     1.2030 ca         1 P35       0.292100
     15 O05          4.3620     0.5630     2.3160 oh         1 P35      -0.540100
     16 C06          3.8720     0.2620    -0.0410 ca         1 P35      -0.463500
     17 S07          3.1020     1.8270    -0.2420 sy         1 P35       1.184600
     18 N08          1.4870     1.6300    -0.0860 n3         1 P35      -0.744500
     19 C09          0.7030     1.1300    -1.2270 c5         1 P35       0.261100
     20 C16         -7.4980    -1.7810    -0.4140 c6         1 P35       0.162300
     21 N17         -8.0700    -0.4890    -0.0810 n7         1 P35      -0.864400
     22 C22         -0.4070     0.6960     0.8210 ca         1 P35      -0.150300
     23 C23          0.9570     1.1700     1.2090 c5         1 P35       0.264100
     24 O24          3.5190     2.6470     0.9020 o          1 P35      -0.545500
     25 O25          3.3370     2.3090    -1.5900 o          1 P35      -0.545500
     26 C27          4.4950    -1.8430    -1.0510 ca         1 P35      -0.267000
     27 H261         3.6150    -0.2380    -2.1190 ha         1 P35       0.128000
     28 H211        -1.3670     0.2900     2.7030 ha         1 P35       0.116000
     29 H111        -1.8290     0.2700    -2.2350 ha         1 P35       0.116000
     30 H141        -5.0100    -1.3690     0.6440 h1         1 P35       0.057700
     31 H151        -6.3300    -1.0850    -2.0760 hc         1 P35       0.054700
     32 H152        -5.7250    -2.5720    -1.3500 hc         1 P35       0.054700
     33 H192        -5.2280     1.0920     0.8370 hc         1 P35       0.054700
     34 H191        -6.0220     1.1560    -0.7340 hc         1 P35       0.054700
     35 H201        -3.4530    -0.4490     1.6890 ha         1 P35       0.116000
     36 H181        -7.0370    -0.2660     1.7720 h1         1 P35       0.032200
     37 H182        -7.7050     1.2050     1.0710 h1         1 P35       0.032200
     38 H011         5.5160    -3.9880    -0.4680 ho         1 P35       0.474000
     39 H031         5.2900    -1.7910     2.2540 ha         1 P35       0.148000
     40 H051         4.1090     1.4820     2.1070 ho         1 P35       0.518000
     41 H091         1.1850     0.2900    -1.7410 h1         1 P35       0.066700
     42 H092         0.5420     1.9210    -1.9600 h1         1 P35       0.066700
     43 H131        -4.0480    -0.3460    -1.9290 hn         1 P35       0.468000
     44 H161        -8.1900    -2.3180    -1.0660 h1         1 P35       0.032200
     45 H162        -7.3430    -2.4160     0.4740 h1         1 P35       0.032200
     46 H171        -8.9770    -0.6230     0.3470 hn         1 P35       0.414000
     47 H231         1.5510     0.3520     1.6350 h1         1 P35       0.064700
     48 H232         0.9450     1.9880     1.9310 h1         1 P35       0.064700
     49 H271         4.5580    -2.4760    -1.9270 ha         1 P35       0.121000
     50 N13         -3.9520    -0.6060    -0.9580 nu         1 P35      -0.950200
@<TRIPOS>BOND
     1     1    16 ar  
     2     1    26 ar  
     3     1    27 1   
     4     2     9 ar  
     5     2    22 ar  
     6     2    28 1   
     7     3     4 ar  
     8     3    19 1   
     9     3    22 ar  
    10     4     5 ar  
    11     4    29 1   
    12     5     9 ar  
    13     5    50 1   
    14     6     7 1   
    15     6     8 1   
    16     6    30 1   
    17     6    50 1   
    18     7    20 1   
    19     7    31 1   
    20     7    32 1   
    21     8    10 1   
    22     8    33 1   
    23     8    34 1   
    24     9    35 1   
    25    10    21 1   
    26    10    36 1   
    27    10    37 1   
    28    11    12 1   
    29    11    38 1   
    30    12    13 ar  
    31    12    26 ar  
    32    13    14 ar  
    33    13    39 1   
    34    14    15 1   
    35    14    16 ar  
    36    15    40 1   
    37    16    17 1   
    38    17    18 1   
    39    17    24 2   
    40    17    25 2   
    41    18    19 1   
    42    18    23 1   
    43    19    41 1   
    44    19    42 1   
    45    20    21 1   
    46    20    44 1   
    47    20    45 1   
    48    21    46 1   
    49    22    23 1   
    50    23    47 1   
    51    23    48 1   
    52    26    49 1   
    53    43    50 1   
@<TRIPOS>SUBSTRUCTURE
     1 P35         1 TEMP              0 ****  ****    0 ROOT
