@<TRIPOS>MOLECULE
P35
   50    53     1     0     0
SMALL
No Charge or Current Charge


@<TRIPOS>ATOM
      1 C26          4.5160    -0.9730    -0.2970 ca         1 P35       0.059000
      2 C21         -1.2040    -1.5940     0.1370 ca         1 P35      -0.043000
      3 C10         -0.7720     0.3040    -1.3020 ca         1 P35      -0.049300
      4 C11         -2.1370     0.4330    -1.6000 ca         1 P35      -0.172000
      5 C12         -3.0500    -0.4640    -1.0150 ca         1 P35       0.331000
      6 C14         -5.5060    -0.6350    -0.3780 c6         1 P35       0.221500
      7 C15         -6.8630    -0.4820    -1.1050 c6         1 P35      -0.095900
      8 C19         -5.4540     0.3100     0.8480 c6         1 P35      -0.095900
      9 C20         -2.5790    -1.4790    -0.1510 ca         1 P35      -0.184000
     10 C18         -6.6610     0.0580     1.7800 c6         1 P35       0.162300
     11 O01          6.0520    -1.8930     2.9060 oh         1 P35      -0.520100
     12 C02          5.3840    -1.1800     1.9600 ca         1 P35       0.232100
     13 C03          4.8770     0.0830     2.2740 ca         1 P35      -0.225000
     14 C04          4.1900     0.8270     1.3090 ca         1 P35       0.292100
     15 O05          3.7270     2.0560     1.6550 oh         1 P35      -0.540100
     16 C06          4.0000     0.3000     0.0190 ca         1 P35      -0.463500
     17 S07          3.0920     1.1970    -1.2370 sy         1 P35       1.184600
     18 N08          1.5090     0.7350    -0.8970 n3         1 P35      -0.744500
     19 C09          0.3830     1.1370    -1.7970 c5         1 P35       0.261100
     20 C16         -8.0340    -0.7180    -0.1230 c6         1 P35       0.162300
     21 N17         -7.9420     0.1900     1.0450 n7         1 P35      -0.864400
     22 C22         -0.3190    -0.6820    -0.4550 ca         1 P35      -0.150300
     23 C23          1.1780    -0.6000    -0.3080 c5         1 P35       0.264100
     24 O24          3.1770     2.6210    -0.8970 o          1 P35      -0.545500
     25 O25          3.4260     0.6650    -2.5610 o          1 P35      -0.545500
     26 C27          5.2060    -1.7090     0.6780 ca         1 P35      -0.267000
     27 H261         4.3790    -1.4020    -1.2900 ha         1 P35       0.128000
     28 H211        -0.8390    -2.3740     0.8020 ha         1 P35       0.116000
     29 H111        -2.4810     1.2160    -2.2690 ha         1 P35       0.116000
     30 H141        -5.4310    -1.6750    -0.0250 h1         1 P35       0.057700
     31 H151        -6.9510     0.5220    -1.5420 hc         1 P35       0.054700
     32 H152        -6.9300    -1.1980    -1.9350 hc         1 P35       0.054700
     33 H192        -4.5220     0.1560     1.4090 hc         1 P35       0.054700
     34 H191        -5.4570     1.3570     0.5200 hc         1 P35       0.054700
     35 H201        -3.2720    -2.1850     0.2960 ha         1 P35       0.116000
     36 H181        -6.5890    -0.9530     2.2090 h1         1 P35       0.032200
     37 H182        -6.6400     0.7750     2.6140 h1         1 P35       0.032200
     38 H011         6.3300    -2.7410     2.5030 ho         1 P35       0.474000
     39 H031         5.0210     0.4920     3.2690 ha         1 P35       0.148000
     40 H051         3.4220     2.4890     0.8210 ho         1 P35       0.518000
     41 H091         0.5960     0.8940    -2.8470 h1         1 P35       0.066700
     42 H092         0.1670     2.2120    -1.7290 h1         1 P35       0.066700
     43 H131        -4.6090     0.3570    -2.0390 hn         1 P35       0.468000
     44 H161        -8.9900    -0.5530    -0.6420 h1         1 P35       0.032200
     45 H162        -8.0190    -1.7620     0.2230 h1         1 P35       0.032200
     46 H171        -8.7180    -0.0150     1.6880 hn         1 P35       0.414000
     47 H231         1.6540    -1.4190    -0.8650 h1         1 P35       0.064700
     48 H232         1.4860    -0.6750     0.7440 h1         1 P35       0.064700
     49 H271         5.5980    -2.6920     0.4260 ha         1 P35       0.121000
     50 N13         -4.4080    -0.3330    -1.3150 nu         1 P35      -0.950200
@<TRIPOS>BOND
     1     1    16 ar  
     2     1    26 ar  
     3     1    27 1   
     4     2     9 ar  
     5     2    22 ar  
     6     2    28 1   
     7     3     4 ar  
     8     3    19 1   
     9     3    22 ar  
    10     4     5 ar  
    11     4    29 1   
    12     5     9 ar  
    13     5    50 1   
    14     6     7 1   
    15     6     8 1   
    16     6    30 1   
    17     6    50 1   
    18     7    20 1   
    19     7    31 1   
    20     7    32 1   
    21     8    10 1   
    22     8    33 1   
    23     8    34 1   
    24     9    35 1   
    25    10    21 1   
    26    10    36 1   
    27    10    37 1   
    28    11    12 1   
    29    11    38 1   
    30    12    13 ar  
    31    12    26 ar  
    32    13    14 ar  
    33    13    39 1   
    34    14    15 1   
    35    14    16 ar  
    36    15    40 1   
    37    16    17 1   
    38    17    18 1   
    39    17    24 2   
    40    17    25 2   
    41    18    19 1   
    42    18    23 1   
    43    19    41 1   
    44    19    42 1   
    45    20    21 1   
    46    20    44 1   
    47    20    45 1   
    48    21    46 1   
    49    22    23 1   
    50    23    47 1   
    51    23    48 1   
    52    26    49 1   
    53    43    50 1   
@<TRIPOS>SUBSTRUCTURE
     1 P35         1 TEMP              0 ****  ****    0 ROOT
