@<TRIPOS>MOLECULE
P36
   39    41     1     0     0
SMALL
bcc


@<TRIPOS>ATOM
      1 C1          -5.6190     0.0250    -1.6670 ca         1 P36      -0.131500
      2 C2          -5.8490    -1.3320    -1.8510 ca         1 P36      -0.115000
      3 C3          -5.3370    -2.2470    -0.9400 ca         1 P36      -0.131500
      4 C4          -4.5960    -1.8030     0.1470 ca         1 P36      -0.104000
      5 C5          -4.3540    -0.4440     0.3340 ca         1 P36      -0.120300
      6 C6          -4.8740     0.4670    -0.5820 ca         1 P36      -0.104000
      7 C7          -3.5270     0.0180     1.5050 c3         1 P36       0.137300
      8 N8          -2.0900    -0.0430     1.2160 n          1 P36      -0.338000
      9 C9          -1.4960     1.0460     0.5790 c          1 P36       0.729700
     10 C10         -0.1060     0.8690     0.2760 cc         1 P36      -0.266500
     11 C11          0.5940    -0.2770     0.5770 cd         1 P36       0.259100
     12 C12         -0.0920    -1.3310     1.2310 cd         1 P36      -0.325000
     13 C13         -1.4060    -1.1650     1.5180 cc         1 P36       0.063600
     14 O14         -2.1470     2.0510     0.3220 o          1 P36      -0.616500
     15 O15          1.8740    -0.3350     0.2400 os         1 P36      -0.289900
     16 C16          2.6360    -1.5070     0.5500 c3         1 P36       0.190700
     17 C17          4.0330    -1.2620     0.0700 ca         1 P36      -0.102300
     18 C18          4.8820    -0.4210     0.7860 ca         1 P36      -0.097500
     19 C19          6.1680    -0.1710     0.3320 ca         1 P36      -0.132000
     20 C20          6.6190    -0.7630    -0.8420 ca         1 P36      -0.112000
     21 C21          5.7800    -1.6030    -1.5600 ca         1 P36      -0.132000
     22 C22          4.4900    -1.8480    -1.1050 ca         1 P36      -0.097500
     23 BR23         0.7470     2.2970    -0.5800 br         1 P36      -0.032700
     24 H1          -6.0190     0.7430    -2.3720 ha         1 P36       0.133500
     25 H2          -6.4270    -1.6750    -2.6980 ha         1 P36       0.132000
     26 H3          -5.5190    -3.3050    -1.0710 ha         1 P36       0.133500
     27 H4          -4.2120    -2.5240     0.8590 ha         1 P36       0.136500
     28 H6          -4.6940     1.5250    -0.4450 ha         1 P36       0.136500
     29 H7          -3.7800     1.0360     1.7880 h1         1 P36       0.070700
     30 H7A         -3.7080    -0.6150     2.3740 h1         1 P36       0.070700
     31 H12          0.3910    -2.2540     1.5130 ha         1 P36       0.152000
     32 H13         -1.9650    -1.9440     2.0160 h4         1 P36       0.148000
     33 H16          2.6200    -1.6830     1.6290 h1         1 P36       0.045700
     34 H16A         2.2030    -2.3790     0.0520 h1         1 P36       0.045700
     35 H18          4.5390     0.0370     1.7060 ha         1 P36       0.133500
     36 H19          6.8200     0.4840     0.8940 ha         1 P36       0.134000
     37 H20          7.6250    -0.5710    -1.1930 ha         1 P36       0.132000
     38 H21          6.1260    -2.0680    -2.4730 ha         1 P36       0.134000
     39 H22          3.8370    -2.5050    -1.6670 ha         1 P36       0.133500
@<TRIPOS>BOND
     1     1     2 ar  
     2     1     6 ar  
     3     1    24 1   
     4     2     3 ar  
     5     2    25 1   
     6     3     4 ar  
     7     3    26 1   
     8     4     5 ar  
     9     4    27 1   
    10     5     6 ar  
    11     5     7 1   
    12     6    28 1   
    13     7     8 1   
    14     7    29 1   
    15     7    30 1   
    16     8     9 1   
    17     8    13 1   
    18     9    10 1   
    19     9    14 2   
    20    10    11 2   
    21    10    23 1   
    22    11    12 1   
    23    11    15 1   
    24    12    13 2   
    25    12    31 1   
    26    13    32 1   
    27    15    16 1   
    28    16    17 1   
    29    16    33 1   
    30    16    34 1   
    31    17    18 ar  
    32    17    22 ar  
    33    18    19 ar  
    34    18    35 1   
    35    19    20 ar  
    36    19    36 1   
    37    20    21 ar  
    38    20    37 1   
    39    21    22 ar  
    40    21    38 1   
    41    22    39 1   
@<TRIPOS>SUBSTRUCTURE
     1 P36         1 TEMP              0 ****  ****    0 ROOT
