@<TRIPOS>MOLECULE
P36
   39    41     1     0     0
SMALL
No Charge or Current Charge


@<TRIPOS>ATOM
      1 C1          -5.5860    -0.2210    -1.8230 ca         1 P36      -0.113500
      2 C2          -6.0630    -1.5390    -1.7220 ca         1 P36      -0.097000
      3 C3          -5.7360    -2.3170    -0.5990 ca         1 P36      -0.113500
      4 C4          -4.9330    -1.7800     0.4220 ca         1 P36      -0.086000
      5 C5          -4.4520    -0.4580     0.3260 ca         1 P36      -0.120300
      6 C6          -4.7830     0.3180    -0.8030 ca         1 P36      -0.086000
      7 C7          -3.5760     0.1250     1.4280 c3         1 P36       0.137300
      8 N8          -2.1280     0.0310     1.1270 n          1 P36      -0.271000
      9 C9          -1.4730     1.1570     0.5770 c          1 P36       0.587200
     10 C10         -0.0330     0.9780     0.2930 cc         1 P36      -0.266500
     11 C11          0.6110    -0.2080     0.5480 cd         1 P36       0.259100
     12 C12         -0.1130    -1.3170     1.1030 cd         1 P36      -0.375000
     13 C13         -1.4550    -1.1640     1.3720 cc         1 P36       0.013600
     14 O14         -2.0580     2.2110     0.3530 o          1 P36      -0.541000
     15 O15          1.9470    -0.2800     0.2510 os         1 P36      -0.313100
     16 C16          2.7010    -1.4800     0.4810 c3         1 P36       0.213900
     17 C17          4.1400    -1.2310     0.0480 ca         1 P36      -0.102300
     18 C18          5.0830    -0.7310     0.9680 ca         1 P36      -0.079500
     19 C19          6.4100    -0.5000     0.5680 ca         1 P36      -0.114000
     20 C20          6.8030    -0.7660    -0.7550 ca         1 P36      -0.094000
     21 C21          5.8660    -1.2610    -1.6780 ca         1 P36      -0.114000
     22 C22          4.5380    -1.4930    -1.2780 ca         1 P36      -0.079500
     23 Br23         0.8590     2.4850    -0.4440 br         1 P36      -0.032700
     24 H1          -5.8380     0.3830    -2.6920 ha         1 P36       0.115500
     25 H2          -6.6840    -1.9550    -2.5120 ha         1 P36       0.114000
     26 H3          -6.1050    -3.3380    -0.5200 ha         1 P36       0.115500
     27 H4          -4.6860    -2.3920     1.2870 ha         1 P36       0.118500
     28 H6          -4.4180     1.3390    -0.8900 ha         1 P36       0.118500
     29 H7          -3.8640     1.1690     1.6070 h1         1 P36       0.070700
     30 H7A         -3.7740    -0.4080     2.3670 h1         1 P36       0.070700
     31 H12          0.3620    -2.2690     1.3140 ha         1 P36       0.202000
     32 H13         -2.0990    -1.9360     1.7860 h4         1 P36       0.198000
     33 H16          2.6810    -1.7530     1.5440 h1         1 P36       0.045700
     34 H16A         2.2850    -2.3160    -0.0970 h1         1 P36       0.045700
     35 H18          4.7860    -0.5200     1.9940 ha         1 P36       0.115500
     36 H19          7.1340    -0.1150     1.2820 ha         1 P36       0.116000
     37 H20          7.8300    -0.5860    -1.0650 ha         1 P36       0.114000
     38 H21          6.1680    -1.4660    -2.7030 ha         1 P36       0.116000
     39 H22          3.8180    -1.8740    -2.0000 ha         1 P36       0.115500
@<TRIPOS>BOND
     1     1     2 ar  
     2     1     6 ar  
     3     1    24 1   
     4     2     3 ar  
     5     2    25 1   
     6     3     4 ar  
     7     3    26 1   
     8     4     5 ar  
     9     4    27 1   
    10     5     6 ar  
    11     5     7 1   
    12     6    28 1   
    13     7     8 1   
    14     7    29 1   
    15     7    30 1   
    16     8     9 1   
    17     8    13 1   
    18     9    10 1   
    19     9    14 2   
    20    10    11 2   
    21    10    23 1   
    22    11    12 1   
    23    11    15 1   
    24    12    13 2   
    25    12    31 1   
    26    13    32 1   
    27    15    16 1   
    28    16    17 1   
    29    16    33 1   
    30    16    34 1   
    31    17    18 ar  
    32    17    22 ar  
    33    18    19 ar  
    34    18    35 1   
    35    19    20 ar  
    36    19    36 1   
    37    20    21 ar  
    38    20    37 1   
    39    21    22 ar  
    40    21    38 1   
    41    22    39 1   
@<TRIPOS>SUBSTRUCTURE
     1 P36         1 TEMP              0 ****  ****    0 ROOT
