@<TRIPOS>MOLECULE
P37
   54    58     1     0     0
SMALL
bcc


@<TRIPOS>ATOM
      1 N1          -4.2640    -2.5860     0.1800 ns         1 P37      -0.548900
      2 N3           0.9790    -0.1580     1.3480 nc         1 P37      -0.500800
      3 C4          -5.5180    -4.7420     0.2420 cx         1 P37      -0.132900
      4 C5          -3.7450    -0.2400     0.0030 ca         1 P37      -0.140600
      5 C6           3.4920    -1.4990    -0.2060 ca         1 P37       0.183900
      6 C7           4.6640    -2.2210    -0.1150 ca         1 P37      -0.220000
      7 C8           5.5600    -1.8530     0.8720 ca         1 P37       0.180900
      8 C10          4.1380    -0.1030     1.6220 ca         1 P37      -0.055000
      9 C13          0.2430     1.4780    -0.0030 cd         1 P37      -0.351100
     10 C15          1.6770     2.9890    -1.9010 c          1 P37       0.742700
     11 C17         -0.4390     2.5210    -0.7020 cd         1 P37       0.339800
     12 C20         -2.8150     0.6650    -0.4960 ca         1 P37      -0.094000
     13 C21         -4.6140     0.1710     1.0080 ca         1 P37      -0.111000
     14 C22         -4.5370     1.4630     1.5050 ca         1 P37      -0.128000
     15 C3          -5.5210    -4.2840    -1.1840 cx         1 P37      -0.132900
     16 C2          -4.3810    -3.9300    -0.2840 cx         1 P37       0.046700
     17 C1          -3.8040    -1.6000    -0.6130 c          1 P37       0.679700
     18 O1          -3.4510    -1.7920    -1.7670 o          1 P37      -0.584100
     19 C23         -3.5840     2.3660     1.0480 ca         1 P37      -0.067300
     20 C19         -2.7080     1.9400     0.0410 ca         1 P37       0.125600
     21 N5          -1.7340     2.8330    -0.4410 nu         1 P37      -0.651400
     22 C16          0.2990     3.2380    -1.6100 cc         1 P37      -0.407200
     23 N4           2.3040     1.9400    -1.2020 n          1 P37      -0.347000
     24 C18          3.7040     1.6510    -1.4760 c3         1 P37       0.069300
     25 C12          1.5810     1.2400    -0.2940 cc         1 P37       0.149300
     26 C14         -0.0560     0.5720     1.0400 cd         1 P37       0.378200
     27 N2           1.9860     0.2480     0.5340 na         1 P37       0.120300
     28 C11          3.2180    -0.4350     0.6390 ca         1 P37      -0.053200
     29 C9           5.3230    -0.8090     1.7460 ca         1 P37      -0.189000
     30 F1           2.6010    -1.8180    -1.1430 f          1 P37      -0.114900
     31 HN1         -4.3610    -2.4190     1.1680 hn         1 P37       0.318500
     32 H4          -6.2060    -4.2610     0.9270 hc         1 P37       0.077700
     33 H4A         -5.3320    -5.7860     0.4540 hc         1 P37       0.077700
     34 H7           4.8670    -3.0440    -0.7880 ha         1 P37       0.176000
     35 H10          3.9270     0.7190     2.2920 ha         1 P37       0.158000
     36 H20         -2.1590     0.3680    -1.3050 ha         1 P37       0.169000
     37 H21         -5.3760    -0.4920     1.3970 ha         1 P37       0.135000
     38 H22         -5.2300     1.7760     2.2770 ha         1 P37       0.137000
     39 H24         -2.4820     3.9630     1.9710 hc         1 P37       0.048367
     40 H24A        -3.7240     4.5060     0.8580 hc         1 P37       0.048367
     41 H24B        -4.1840     3.8830     2.4390 hc         1 P37       0.048367
     42 H3          -5.3400    -5.0110    -1.9650 hc         1 P37       0.077700
     43 H3A         -6.2060    -3.4910    -1.4560 hc         1 P37       0.077700
     44 H2          -3.4400    -4.4460    -0.4530 h1         1 P37       0.088700
     45 H16         -0.1640     4.0380    -2.1740 ha         1 P37       0.157000
     46 H18          4.0790     2.4120    -2.1500 h1         1 P37       0.057700
     47 H18A         4.2960     1.6780    -0.5640 h1         1 P37       0.057700
     48 H18B         3.8200     0.6840    -1.9600 h1         1 P37       0.057700
     49 H14         -0.9840     0.4390     1.5740 h4         1 P37       0.048100
     50 H9           6.0470    -0.5510     2.5060 ha         1 P37       0.163000
     51 H211        -2.0730     3.6890    -0.8570 hn         1 P37       0.444800
     52 C24         -3.4900     3.7500     1.6110 c3         1 P37      -0.049800
     53 O2           2.3180     3.6290    -2.7300 o          1 P37      -0.635500
     54 F2           6.6980    -2.5410     0.9800 f          1 P37      -0.127900
@<TRIPOS>BOND
     1     1    16 1   
     2     1    17 1   
     3     1    31 1   
     4     2    26 2   
     5     2    27 1   
     6     3    15 1   
     7     3    16 1   
     8     3    32 1   
     9     3    33 1   
    10     4    12 ar  
    11     4    13 ar  
    12     4    17 1   
    13     5     6 ar  
    14     5    28 ar  
    15     5    30 1   
    16     6     7 ar  
    17     6    34 1   
    18     7    29 ar  
    19     7    54 1   
    20     8    28 ar  
    21     8    29 ar  
    22     8    35 1   
    23     9    11 1   
    24     9    25 2   
    25     9    26 1   
    26    10    22 1   
    27    10    23 1   
    28    10    53 2   
    29    11    21 1   
    30    11    22 2   
    31    12    20 ar  
    32    12    36 1   
    33    13    14 ar  
    34    13    37 1   
    35    14    19 ar  
    36    14    38 1   
    37    15    16 1   
    38    15    42 1   
    39    15    43 1   
    40    16    44 1   
    41    17    18 2   
    42    19    20 ar  
    43    19    52 1   
    44    20    21 1   
    45    21    51 1   
    46    22    45 1   
    47    23    24 1   
    48    23    25 1   
    49    24    46 1   
    50    24    47 1   
    51    24    48 1   
    52    25    27 1   
    53    26    49 1   
    54    27    28 1   
    55    29    50 1   
    56    39    52 1   
    57    40    52 1   
    58    41    52 1   
@<TRIPOS>SUBSTRUCTURE
     1 P37         1 TEMP              0 ****  ****    0 ROOT
