@<TRIPOS>MOLECULE
P37
   54    58     1     0     0
SMALL
No Charge or Current Charge


@<TRIPOS>ATOM
      1 N1          -4.7070    -2.6310     0.1860 ns         1 P37      -0.481900
      2 N3           1.2470    -0.1930     1.5640 nc         1 P37      -0.500800
      3 C4          -6.1670    -4.6830     0.0900 cx         1 P37      -0.132900
      4 C5          -3.7040    -0.3780     0.2310 ca         1 P37      -0.140600
      5 C6           3.7110    -1.4010    -0.3440 ca         1 P37       0.219000
      6 C7           4.9620    -2.0340    -0.3730 ca         1 P37      -0.202000
      7 C8           5.9400    -1.6810     0.5670 ca         1 P37       0.216000
      8 C10          4.4190    -0.0650     1.5650 ca         1 P37      -0.037000
      9 C13          0.5090     1.4460     0.1710 cd         1 P37      -0.285800
     10 C15          1.7080     2.9670    -1.8960 c          1 P37       0.600200
     11 C17         -0.2890     2.4330    -0.4720 cd         1 P37       0.339800
     12 C20         -2.6420     0.4860    -0.1180 ca         1 P37      -0.076000
     13 C21         -4.7910     0.1580     0.9590 ca         1 P37      -0.093000
     14 C22         -4.8100     1.5160     1.3160 ca         1 P37      -0.110000
     15 C3          -5.6760    -4.4140    -1.3110 cx         1 P37      -0.132900
     16 C2          -4.8250    -4.0290    -0.1260 cx         1 P37       0.046700
     17 C1          -3.6440    -1.8340    -0.1880 c          1 P37       0.612700
     18 O1          -2.7040    -2.2900    -0.8260 o          1 P37      -0.584100
     19 C23         -3.7460     2.3690     0.9670 ca         1 P37      -0.067300
     20 C19         -2.6430     1.8450     0.2540 ca         1 P37       0.264000
     21 N5          -1.5780     2.6780    -0.1180 nu         1 P37      -0.845000
     22 C16          0.3150     3.1660    -1.4540 cc         1 P37      -0.457200
     23 N4           2.4310     1.9540    -1.2190 n          1 P37      -0.280000
     24 C18          3.8500     1.7110    -1.5770 c3         1 P37       0.069300
     25 C12          1.7830     1.2400    -0.2160 cc         1 P37       0.098600
     26 C14          0.2170     0.5840     1.2550 cd         1 P37       0.312900
     27 N2           2.1940     0.2230     0.6480 na         1 P37       0.171000
     28 C11          3.4330    -0.4090     0.6190 ca         1 P37      -0.053200
     29 C9           5.6740    -0.7010     1.5350 ca         1 P37      -0.171000
     30 F1           2.7760    -1.7480    -1.2580 f          1 P37      -0.150000
     31 HN1         -5.4410    -2.1810     0.7170 hn         1 P37       0.318500
     32 H4          -6.9840    -4.0720     0.4670 hc         1 P37       0.077700
     33 H4A         -6.1750    -5.7150     0.4350 hc         1 P37       0.077700
     34 H7           5.1730    -2.7940    -1.1190 ha         1 P37       0.158000
     35 H10          4.2130     0.6950     2.3180 ha         1 P37       0.140000
     36 H20         -1.8070     0.1020    -0.6960 ha         1 P37       0.151000
     37 H21         -5.6360    -0.4600     1.2530 ha         1 P37       0.117000
     38 H22         -5.6610     1.9060     1.8710 ha         1 P37       0.119000
     39 H24         -2.9140     4.1240     1.9540 hc         1 P37       0.048367
     40 H24A        -3.8640     4.4930     0.5010 hc         1 P37       0.048367
     41 H24B        -4.6760     4.0530     2.0060 hc         1 P37       0.048367
     42 H3          -5.3520    -5.2620    -1.9080 hc         1 P37       0.077700
     43 H3A         -6.1560    -3.6170    -1.8740 hc         1 P37       0.077700
     44 H2          -3.9280    -4.6170     0.0790 h1         1 P37       0.088700
     45 H16         -0.2200     3.9410    -1.9860 ha         1 P37       0.207000
     46 H18          4.2430     2.4990    -2.2290 h1         1 P37       0.057700
     47 H18A         4.4650     1.6900    -0.6700 h1         1 P37       0.057700
     48 H18B         3.9370     0.7500    -2.1000 h1         1 P37       0.057700
     49 H14         -0.7000     0.5010     1.8250 h4         1 P37       0.048100
     50 H9           6.4390    -0.4360     2.2610 ha         1 P37       0.145000
     51 H211        -1.8330     3.6590    -0.2200 hn         1 P37       0.500000
     52 C24         -3.8030     3.8390     1.3790 c3         1 P37      -0.049800
     53 O2           2.1890     3.6440    -2.7930 o          1 P37      -0.560000
     54 F2           7.1460    -2.2890     0.5410 f          1 P37      -0.163000
@<TRIPOS>BOND
     1     1    16 1   
     2     1    17 1   
     3     1    31 1   
     4     2    26 2   
     5     2    27 1   
     6     3    15 1   
     7     3    16 1   
     8     3    32 1   
     9     3    33 1   
    10     4    12 ar  
    11     4    13 ar  
    12     4    17 1   
    13     5     6 ar  
    14     5    28 ar  
    15     5    30 1   
    16     6     7 ar  
    17     6    34 1   
    18     7    29 ar  
    19     7    54 1   
    20     8    28 ar  
    21     8    29 ar  
    22     8    35 1   
    23     9    11 1   
    24     9    25 2   
    25     9    26 1   
    26    10    22 1   
    27    10    23 1   
    28    10    53 2   
    29    11    21 1   
    30    11    22 2   
    31    12    20 ar  
    32    12    36 1   
    33    13    14 ar  
    34    13    37 1   
    35    14    19 ar  
    36    14    38 1   
    37    15    16 1   
    38    15    42 1   
    39    15    43 1   
    40    16    44 1   
    41    17    18 2   
    42    19    20 ar  
    43    19    52 1   
    44    20    21 1   
    45    21    51 1   
    46    22    45 1   
    47    23    24 1   
    48    23    25 1   
    49    24    46 1   
    50    24    47 1   
    51    24    48 1   
    52    25    27 1   
    53    26    49 1   
    54    27    28 1   
    55    29    50 1   
    56    39    52 1   
    57    40    52 1   
    58    41    52 1   
@<TRIPOS>SUBSTRUCTURE
     1 P37         1 TEMP              0 ****  ****    0 ROOT
