@<TRIPOS>MOLECULE
P38
   76    81     1     0     0
SMALL
No Charge or Current Charge


@<TRIPOS>ATOM
      1 C18         11.5980     0.8430     1.1580 ca         1 P38      -0.113500
      2 C17         10.7010    -0.1920     1.4760 ca         1 P38      -0.084000
      3 C16          9.7080    -0.5880     0.5550 ca         1 P38      -0.050800
      4 C15          9.2030    -2.8370     1.4540 c2         1 P38      -0.371000
      5 C19         11.5140     1.4900    -0.0860 ca         1 P38      -0.102000
      6 C20         10.5320     1.1010    -1.0120 ca         1 P38      -0.113500
      7 C21          9.6340     0.0670    -0.6940 ca         1 P38      -0.084000
      8 C23         -0.0300     1.6310    -0.5860 ca         1 P38       0.315000
      9 C24         -0.0450     2.9860    -0.9870 ca         1 P38      -0.132300
     10 C11          6.5770    -0.4730     0.6170 c          1 P38       0.642300
     11 C34         -7.3600     0.2330     0.0080 ca         1 P38      -0.178000
     12 C27         -2.4810     1.6070    -0.5260 ca         1 P38      -0.005000
     13 C33         -5.9620     0.0320     0.0340 ca         1 P38      -0.079600
     14 N1           3.4760    -1.7700    -0.7630 na         1 P38       0.290900
     15 N2           2.7240    -2.7270    -1.3930 nc         1 P38      -0.299800
     16 C3           1.4450    -2.3610    -1.6220 cd         1 P38       0.140900
     17 N4           0.8510    -1.1270    -1.3020 nd         1 P38      -0.296000
     18 C5           1.6490    -0.2700    -0.6980 cc         1 P38       0.454900
     19 C6           2.9960    -0.5610    -0.4010 cc         1 P38      -0.277000
     20 C7           4.0310     0.1240     0.2050 cd         1 P38      -0.024200
     21 C8           5.1810    -0.7490     0.1440 cd         1 P38      -0.229200
     22 C9           4.8080    -1.9430    -0.4640 cc         1 P38      -0.142100
     23 O12          6.9470     0.5920     1.0880 o          1 P38      -0.569100
     24 N13          7.4320    -1.5460     0.4720 ns         1 P38      -0.437100
     25 C14          8.7620    -1.6960     0.8960 ce         1 P38       0.096400
     26 N22          1.1890     0.9800    -0.3860 nu         1 P38      -0.925900
     27 C25         -1.2810     3.6360    -1.1670 ca         1 P38      -0.068000
     28 C26         -2.4890     2.9550    -0.9430 ca         1 P38      -0.135000
     29 C28         -1.2440     0.9630    -0.3480 ca         1 P38      -0.160000
     30 C29          1.2500     3.7590    -1.2390 c3         1 P38      -0.046800
     31 N30         -3.6580     0.8500    -0.2680 ns         1 P38      -0.141000
     32 C31         -5.0110     1.1640    -0.3270 c          1 P38       0.617700
     33 O32         -5.4360     2.2710    -0.6430 o          1 P38      -0.571100
     34 C35         -8.2350    -0.8200     0.3400 ca         1 P38       0.613900
     35 N36         -7.7970    -2.0410     0.6890 nb         1 P38      -0.738000
     36 C37         -6.4660    -2.2510     0.7190 ca         1 P38       0.386900
     37 C38         -5.5230    -1.2600     0.4060 ca         1 P38      -0.211000
     38 N39         -9.6410    -0.6790     0.3420 nh         1 P38      -0.766300
     39 C40        -10.5310    -1.7940    -0.1440 c6         1 P38       0.176300
     40 C41        -11.9870    -1.6790     0.3930 c6         1 P38       0.142600
     41 O42        -12.5230    -0.3580     0.1550 os         1 P38      -0.442000
     42 C43        -11.7500     0.6730     0.8080 c6         1 P38       0.142600
     43 C44        -10.2810     0.6780     0.2910 c6         1 P38       0.176300
     44 H18         12.3580     1.1430     1.8760 ha         1 P38       0.112000
     45 H17         10.7710    -0.6810     2.4450 ha         1 P38       0.114500
     46 H15         10.2500    -2.9780     1.7220 ha         1 P38       0.174000
     47 H15A         8.5330    -3.6720     1.6590 ha         1 P38       0.174000
     48 H19         12.2090     2.2900    -0.3320 ha         1 P38       0.111000
     49 H20         10.4670     1.5990    -1.9760 ha         1 P38       0.112000
     50 H21          8.8830    -0.2290    -1.4230 ha         1 P38       0.114500
     51 H3           0.7960    -3.0750    -2.1140 h5         1 P38       0.058100
     52 H9           5.3360    -2.8530    -0.7210 h4         1 P38       0.240000
     53 HN13         6.9800    -2.4220     0.2620 hn         1 P38       0.318500
     54 HN22         1.9630     1.6110    -0.2210 hn         1 P38       0.514000
     55 H25         -1.3100     4.6770    -1.4820 ha         1 P38       0.118000
     56 H26         -3.4160     3.4970    -1.0960 ha         1 P38       0.149000
     57 H28         -1.2250    -0.0680    -0.0090 ha         1 P38       0.137000
     58 H29          1.8880     3.2410    -1.9640 hc         1 P38       0.043700
     59 H29A         1.0540     4.7610    -1.6380 hc         1 P38       0.043700
     60 H29B         1.8210     3.8840    -0.3110 hc         1 P38       0.043700
     61 HN30        -3.4720    -0.1030     0.0120 hn         1 P38       0.160000
     62 H37         -6.1410    -3.2510     1.0060 h4         1 P38       0.020100
     63 H38         -4.4690    -1.5200     0.4570 ha         1 P38       0.126000
     64 H40        -10.5610    -1.7900    -1.2440 h1         1 P38       0.058700
     65 H40A       -10.1470    -2.7780     0.1610 h1         1 P38       0.058700
     66 H41        -12.6260    -2.4230    -0.1040 h1         1 P38       0.055200
     67 H41A       -12.0030    -1.8860     1.4730 h1         1 P38       0.055200
     68 H43        -12.2160     1.6500     0.6160 h1         1 P38       0.055200
     69 H43A       -11.7620     0.5000     1.8940 h1         1 P38       0.055200
     70 H44         -9.7160     1.3920     0.9090 h1         1 P38       0.058700
     71 H44A       -10.2730     1.0590    -0.7410 h1         1 P38       0.058700
     72 C10          3.9880     1.5090     0.8190 c3         1 P38      -0.042900
     73 H34         -7.7580     1.1990    -0.2810 ha         1 P38       0.142000
     74 H10          3.0510     1.6820     1.3580 hc         1 P38       0.053700
     75 H10A         4.7770     1.6600     1.5600 hc         1 P38       0.053700
     76 H10B         4.0960     2.2850     0.0520 hc         1 P38       0.053700
@<TRIPOS>BOND
     1     1     2 ar  
     2     1     5 ar  
     3     1    44 1   
     4     2     3 ar  
     5     2    45 1   
     6     3     7 ar  
     7     3    25 1   
     8     4    25 2   
     9     4    46 1   
    10     4    47 1   
    11     5     6 ar  
    12     5    48 1   
    13     6     7 ar  
    14     6    49 1   
    15     7    50 1   
    16     8     9 ar  
    17     8    26 1   
    18     8    29 ar  
    19     9    27 ar  
    20     9    30 1   
    21    10    21 1   
    22    10    23 2   
    23    10    24 1   
    24    11    13 ar  
    25    11    34 ar  
    26    11    73 1   
    27    12    28 ar  
    28    12    29 ar  
    29    12    31 1   
    30    13    32 1   
    31    13    37 ar  
    32    14    15 1   
    33    14    19 1   
    34    14    22 1   
    35    15    16 2   
    36    16    17 1   
    37    16    51 1   
    38    17    18 2   
    39    18    19 1   
    40    18    26 1   
    41    19    20 2   
    42    20    21 1   
    43    20    72 1   
    44    21    22 2   
    45    22    52 1   
    46    24    25 1   
    47    24    53 1   
    48    26    54 1   
    49    27    28 ar  
    50    27    55 1   
    51    28    56 1   
    52    29    57 1   
    53    30    58 1   
    54    30    59 1   
    55    30    60 1   
    56    31    32 1   
    57    31    61 1   
    58    32    33 2   
    59    34    35 ar  
    60    34    38 1   
    61    35    36 ar  
    62    36    37 ar  
    63    36    62 1   
    64    37    63 1   
    65    38    39 1   
    66    38    43 1   
    67    39    40 1   
    68    39    64 1   
    69    39    65 1   
    70    40    41 1   
    71    40    66 1   
    72    40    67 1   
    73    41    42 1   
    74    42    43 1   
    75    42    68 1   
    76    42    69 1   
    77    43    70 1   
    78    43    71 1   
    79    72    74 1   
    80    72    75 1   
    81    72    76 1   
@<TRIPOS>SUBSTRUCTURE
     1 P38         1 TEMP              0 ****  ****    0 ROOT
