@<TRIPOS>MOLECULE
P38
   76    81     1     0     0
SMALL
abcg2


@<TRIPOS>ATOM
      1 C18         11.4460     0.1560    -0.4350 ca         1 P38      -0.113500
      2 C17         10.5560    -0.5420     0.3690 ca         1 P38      -0.084000
      3 C16          9.3590    -1.0290    -0.1530 ca         1 P38      -0.050800
      4 C15          8.8810    -2.7400     1.5600 c2         1 P38      -0.371000
      5 C19         11.1480     0.3830    -1.7720 ca         1 P38      -0.102000
      6 C20          9.9540    -0.0940    -2.2990 ca         1 P38      -0.113500
      7 C21          9.0650    -0.7920    -1.4960 ca         1 P38      -0.084000
      8 C23         -0.1560     2.1090     0.3800 ca         1 P38       0.315000
      9 C24         -0.2050     3.5100     0.3790 ca         1 P38      -0.132300
     10 C11          6.4420    -0.4650     0.4050 c          1 P38       0.642300
     11 C34         -7.0880     0.1980     0.1050 ca         1 P38      -0.178000
     12 C27         -2.5630     1.9820     0.5470 ca         1 P38      -0.005000
     13 C33         -5.9030     0.2780     0.8090 ca         1 P38      -0.079600
     14 N1           3.1330    -1.2370    -0.8420 na         1 P38       0.290900
     15 N2           2.2420    -1.9730    -1.5370 nc         1 P38      -0.299800
     16 C3           1.0480    -1.4790    -1.5310 cd         1 P38       0.140900
     17 N4           0.6050    -0.3540    -0.9340 nd         1 P38      -0.296000
     18 C5           1.4780     0.3600    -0.2630 cc         1 P38       0.454900
     19 C6           2.8430    -0.0570    -0.1770 cc         1 P38      -0.277000
     20 C7           4.0140     0.4120     0.4010 cd         1 P38      -0.024200
     21 C8           5.0100    -0.5320     0.0630 cd         1 P38      -0.229200
     22 C9           4.4280    -1.5360    -0.7030 cc         1 P38      -0.142100
     23 O12          7.0290     0.5830     0.6070 o          1 P38      -0.569100
     24 N13          7.0670    -1.6760     0.4560 ns         1 P38      -0.437100
     25 C14          8.4450    -1.8290     0.6880 ce         1 P38       0.096400
     26 N22          1.1110     1.5060     0.3410 nu         1 P38      -0.925900
     27 C25         -1.4570     4.1030     0.4610 ca         1 P38      -0.068000
     28 C26         -2.6340     3.3720     0.5370 ca         1 P38      -0.135000
     29 C28         -1.3190     1.3590     0.4720 ca         1 P38      -0.160000
     30 C29          1.0410     4.3400     0.2930 c3         1 P38      -0.046800
     31 N30         -3.6710     1.1360     0.6760 ns         1 P38      -0.141000
     32 C31         -4.9840     1.4260     0.5170 c          1 P38       0.617700
     33 O32         -5.4140     2.5090     0.1630 o          1 P38      -0.571100
     34 C35         -7.9720    -0.8670     0.3740 ca         1 P38       0.613900
     35 N36         -7.6730    -1.7850     1.2950 nb         1 P38      -0.738000
     36 C37         -6.5420    -1.6800     1.9740 ca         1 P38       0.386900
     37 C38         -5.6110    -0.6770     1.7820 ca         1 P38      -0.211000
     38 N39         -9.1730    -1.0040    -0.2700 nh         1 P38      -0.766300
     39 C40         -9.8530    -2.2900    -0.2260 c6         1 P38       0.176300
     40 C41        -11.3290    -2.1190    -0.5230 c6         1 P38       0.142600
     41 O42        -11.5440    -1.4500    -1.7450 os         1 P38      -0.442000
     42 C43        -10.9690    -0.1670    -1.6940 c6         1 P38       0.142600
     43 C44         -9.4710    -0.2180    -1.4520 c6         1 P38       0.176300
     44 H18         12.3680     0.5330    -0.0120 ha         1 P38       0.112000
     45 H17         10.7850    -0.6960     1.4170 ha         1 P38       0.114500
     46 H15          9.9350    -2.9550     1.6590 ha         1 P38       0.174000
     47 H15A         8.1960    -3.3150     2.1690 ha         1 P38       0.174000
     48 H19         11.8400     0.9320    -2.3980 ha         1 P38       0.111000
     49 H20          9.7150     0.0760    -3.3410 ha         1 P38       0.112000
     50 H21          8.1430    -1.1660    -1.9220 ha         1 P38       0.114500
     51 H3           0.3110    -2.0500    -2.0820 h5         1 P38       0.058100
     52 H9           4.8490    -2.4080    -1.1760 h4         1 P38       0.240000
     53 HN13         6.4920    -2.4970     0.5630 hn         1 P38       0.318500
     54 HN22         1.8510     2.0380     0.7690 hn         1 P38       0.514000
     55 H25         -1.5220     5.1840     0.4610 ha         1 P38       0.118000
     56 H26         -3.5750     3.8930     0.5990 ha         1 P38       0.149000
     57 H28         -1.2610     0.2800     0.4920 ha         1 P38       0.137000
     58 H29          1.6340     4.1000    -0.5910 hc         1 P38       0.043700
     59 H29A         0.7940     5.3990     0.2450 hc         1 P38       0.043700
     60 H29B         1.6890     4.2100     1.1650 hc         1 P38       0.043700
     61 HN30        -3.4440     0.1670     0.8410 hn         1 P38       0.160000
     62 H37         -6.3640    -2.4460     2.7210 h4         1 P38       0.020100
     63 H38         -4.7180    -0.6430     2.3910 ha         1 P38       0.126000
     64 H40         -9.4030    -2.9860    -0.9460 h1         1 P38       0.058700
     65 H40A        -9.7430    -2.7290     0.7620 h1         1 P38       0.058700
     66 H41        -11.8000    -3.1000    -0.5950 h1         1 P38       0.055200
     67 H41A       -11.8070    -1.5700     0.3000 h1         1 P38       0.055200
     68 H43        -11.1630     0.3240    -2.6490 h1         1 P38       0.055200
     69 H43A       -11.4410     0.4320    -0.9030 h1         1 P38       0.055200
     70 H44         -9.1400     0.8110    -1.3210 h1         1 P38       0.058700
     71 H44A        -8.9550    -0.6230    -2.3330 h1         1 P38       0.058700
     72 C10          4.1700     1.6420     1.2380 c3         1 P38      -0.042900
     73 H34         -7.3030     0.9430    -0.6460 ha         1 P38       0.142000
     74 H10          3.4050     1.7060     2.0150 hc         1 P38       0.053700
     75 H10A         5.1300     1.6550     1.7440 hc         1 P38       0.053700
     76 H10B         4.1220     2.5520     0.6350 hc         1 P38       0.053700
@<TRIPOS>BOND
     1     1     2 ar  
     2     1     5 ar  
     3     1    44 1   
     4     2     3 ar  
     5     2    45 1   
     6     3     7 ar  
     7     3    25 1   
     8     4    25 2   
     9     4    46 1   
    10     4    47 1   
    11     5     6 ar  
    12     5    48 1   
    13     6     7 ar  
    14     6    49 1   
    15     7    50 1   
    16     8     9 ar  
    17     8    26 1   
    18     8    29 ar  
    19     9    27 ar  
    20     9    30 1   
    21    10    21 1   
    22    10    23 2   
    23    10    24 1   
    24    11    13 ar  
    25    11    34 ar  
    26    11    73 1   
    27    12    28 ar  
    28    12    29 ar  
    29    12    31 1   
    30    13    32 1   
    31    13    37 ar  
    32    14    15 1   
    33    14    19 1   
    34    14    22 1   
    35    15    16 2   
    36    16    17 1   
    37    16    51 1   
    38    17    18 2   
    39    18    19 1   
    40    18    26 1   
    41    19    20 2   
    42    20    21 1   
    43    20    72 1   
    44    21    22 2   
    45    22    52 1   
    46    24    25 1   
    47    24    53 1   
    48    26    54 1   
    49    27    28 ar  
    50    27    55 1   
    51    28    56 1   
    52    29    57 1   
    53    30    58 1   
    54    30    59 1   
    55    30    60 1   
    56    31    32 1   
    57    31    61 1   
    58    32    33 2   
    59    34    35 ar  
    60    34    38 1   
    61    35    36 ar  
    62    36    37 ar  
    63    36    62 1   
    64    37    63 1   
    65    38    39 1   
    66    38    43 1   
    67    39    40 1   
    68    39    64 1   
    69    39    65 1   
    70    40    41 1   
    71    40    66 1   
    72    40    67 1   
    73    41    42 1   
    74    42    43 1   
    75    42    68 1   
    76    42    69 1   
    77    43    70 1   
    78    43    71 1   
    79    72    74 1   
    80    72    75 1   
    81    72    76 1   
@<TRIPOS>SUBSTRUCTURE
     1 P38         1 TEMP              0 ****  ****    0 ROOT
