@<TRIPOS>MOLECULE
P39
   79    84     1     0     0
SMALL
bcc


@<TRIPOS>ATOM
      1 C18         -9.7490     2.8640    -2.7560 ca         1 P39      -0.129000
      2 C17         -9.3840     1.6080    -2.2850 ca         1 P39      -0.117000
      3 C16         -9.0700     1.4150    -0.9440 ca         1 P39      -0.105300
      4 C15         -9.5930    -0.4500     0.6700 c3         1 P39      -0.101100
      5 C19         -9.7960     3.9450    -1.8870 ca         1 P39      -0.121000
      6 C20         -9.4810     3.7630    -0.5470 ca         1 P39      -0.129000
      7 C21         -9.1240     2.5070    -0.0790 ca         1 P39      -0.117000
      8 C23          0.4050    -2.5730     0.4400 ca         1 P39       0.174600
      9 C24          0.6790    -3.9450     0.3800 ca         1 P39      -0.131300
     10 C34          6.9900     0.3370    -0.0740 ca         1 P39      -0.121000
     11 C27          2.7650    -2.0530     0.4900 ca         1 P39       0.088600
     12 C33          5.7840     0.1920     0.5960 ca         1 P39      -0.125600
     13 N1          -3.4660     0.0330     1.7270 na         1 P39       0.239200
     14 N2          -2.7670     0.7650     2.6190 nc         1 P39      -0.564800
     15 C3          -1.5140     0.4510     2.6740 cd         1 P39       0.664900
     16 N4          -0.8490    -0.4890     1.9740 nd         1 P39      -0.824000
     17 C5          -1.5380    -1.2010     1.1120 cc         1 P39       0.783200
     18 C6          -2.9360    -0.9700     0.9330 cc         1 P39      -0.291600
     19 C7          -3.9660    -1.5020     0.1680 cd         1 P39      -0.027200
     20 C8          -5.1230    -0.7780     0.5280 cd         1 P39      -0.221200
     21 C9          -4.7770     0.1610     1.4920 cc         1 P39      -0.096100
     22 N13         -7.2800     0.0880    -0.0100 ns         1 P39      -0.574900
     23 C14         -8.6720     0.0480    -0.4420 c3         1 P39       0.165000
     24 N22         -0.9420    -2.1740     0.3980 nu         1 P39      -0.734300
     25 C25          2.0140    -4.3260     0.3720 ca         1 P39      -0.087000
     26 C26          3.0580    -3.4140     0.4320 ca         1 P39      -0.154000
     27 C28          1.4320    -1.6430     0.4860 ca         1 P39      -0.177000
     28 C29         -0.4220    -4.9630     0.3380 c3         1 P39      -0.045800
     29 N30          3.7210    -1.0330     0.5560 ns         1 P39      -0.467100
     30 C31          5.0710    -1.1150     0.4510 c          1 P39       0.688700
     31 O32          5.6770    -2.1510     0.2390 o          1 P39      -0.581100
     32 C35          7.7270     1.5270    -0.0050 ca         1 P39       0.155600
     33 C36          7.2110     2.5620     0.7870 ca         1 P39      -0.172000
     34 C37          6.0110     2.4080     1.4640 ca         1 P39      -0.103000
     35 C38          5.2860     1.2320     1.3810 ca         1 P39      -0.145000
     36 N39          8.9040     1.6640    -0.7320 nh         1 P39      -0.651000
     37 C40          9.8550     0.5600    -0.7020 c6         1 P39       0.159800
     38 C41         10.8670     0.7090    -1.8210 c6         1 P39       0.124400
     39 O42         11.5310     1.9500    -1.7560 os         1 P39      -0.397600
     40 C43         10.6020     3.0060    -1.8370 c6         1 P39       0.124400
     41 C44          9.5730     2.9500    -0.7230 c6         1 P39       0.159800
     42 H18         -9.9910     2.9960    -3.8020 ha         1 P39       0.132500
     43 H17         -9.3450     0.7700    -2.9700 ha         1 P39       0.132500
     44 H15        -10.6180    -0.5170     0.3060 hc         1 P39       0.044700
     45 H15A        -9.2890    -1.4400     1.0070 hc         1 P39       0.044700
     46 H15B        -9.5810     0.2220     1.5290 hc         1 P39       0.044700
     47 H19        -10.0770     4.9240    -2.2520 ha         1 P39       0.132000
     48 H20         -9.5150     4.6010     0.1380 ha         1 P39       0.132500
     49 H21         -8.8900     2.3820     0.9720 ha         1 P39       0.132500
     50 H3          -0.9290     1.0230     3.3840 h5         1 P39       0.055100
     51 H9          -5.3700     0.8750     2.0390 h4         1 P39       0.187000
     52 HN13        -6.8650     0.9900     0.1630 hn         1 P39       0.317500
     53 H14         -8.7380    -0.6520    -1.2790 h1         1 P39       0.071700
     54 HN22        -1.5420    -2.7380    -0.1830 hn         1 P39       0.458800
     55 H25          2.2540    -5.3810     0.3290 ha         1 P39       0.135000
     56 H26          4.0730    -3.7720     0.4310 ha         1 P39       0.169000
     57 H28          1.2000    -0.5870     0.5180 ha         1 P39       0.151000
     58 H29         -1.0050    -4.9070    -0.5860 hc         1 P39       0.043033
     59 H29A        -0.0160    -5.9710     0.3940 hc         1 P39       0.043033
     60 H29B        -1.1190    -4.8390     1.1690 hc         1 P39       0.043033
     61 HN30         3.3340    -0.1040     0.6260 hn         1 P39       0.324500
     62 H36          7.7450     3.4950     0.8980 ha         1 P39       0.134000
     63 H37          5.6490     3.2180     2.0840 ha         1 P39       0.133000
     64 H38          4.3710     1.1290     1.9490 ha         1 P39       0.135000
     65 H40         10.3740     0.5240     0.2670 h1         1 P39       0.049950
     66 H40A         9.3460    -0.3930    -0.8320 h1         1 P39       0.049950
     67 H41         11.6200    -0.0750    -1.7380 h1         1 P39       0.054700
     68 H41A        10.3580     0.5940    -2.7880 h1         1 P39       0.054700
     69 H43         11.1590     3.9420    -1.7730 h1         1 P39       0.054700
     70 H43A        10.0830     2.9860    -2.8050 h1         1 P39       0.054700
     71 H44          8.8490     3.7460    -0.9030 h1         1 P39       0.049950
     72 H44A        10.0530     3.1550     0.2460 h1         1 P39       0.049950
     73 C11         -6.4950    -1.0040     0.0250 c          1 P39       0.707300
     74 C10         -3.8510    -2.5850    -0.8580 c3         1 P39      -0.040900
     75 O12         -6.8870    -2.1120    -0.3220 o          1 P39      -0.611100
     76 H34          7.3400    -0.4830    -0.6860 ha         1 P39       0.154000
     77 H10         -3.6870    -3.5640    -0.4010 hc         1 P39       0.052367
     78 H10A        -4.7590    -2.6640    -1.4470 hc         1 P39       0.052367
     79 H10B        -3.0350    -2.3950    -1.5580 hc         1 P39       0.052367
@<TRIPOS>BOND
     1     1     2 ar  
     2     1     5 ar  
     3     1    42 1   
     4     2     3 ar  
     5     2    43 1   
     6     3     7 ar  
     7     3    23 1   
     8     4    23 1   
     9     4    44 1   
    10     4    45 1   
    11     4    46 1   
    12     5     6 ar  
    13     5    47 1   
    14     6     7 ar  
    15     6    48 1   
    16     7    49 1   
    17     8     9 ar  
    18     8    24 1   
    19     8    27 ar  
    20     9    25 ar  
    21     9    28 1   
    22    10    12 ar  
    23    10    32 ar  
    24    10    76 1   
    25    11    26 ar  
    26    11    27 ar  
    27    11    29 1   
    28    12    30 1   
    29    12    35 ar  
    30    13    14 1   
    31    13    18 1   
    32    13    21 1   
    33    14    15 2   
    34    15    16 1   
    35    15    50 1   
    36    16    17 2   
    37    17    18 1   
    38    17    24 1   
    39    18    19 2   
    40    19    20 1   
    41    19    74 1   
    42    20    21 2   
    43    20    73 1   
    44    21    51 1   
    45    22    23 1   
    46    22    52 1   
    47    22    73 1   
    48    23    53 1   
    49    24    54 1   
    50    25    26 ar  
    51    25    55 1   
    52    26    56 1   
    53    27    57 1   
    54    28    58 1   
    55    28    59 1   
    56    28    60 1   
    57    29    30 1   
    58    29    61 1   
    59    30    31 2   
    60    32    33 ar  
    61    32    36 1   
    62    33    34 ar  
    63    33    62 1   
    64    34    35 ar  
    65    34    63 1   
    66    35    64 1   
    67    36    37 1   
    68    36    41 1   
    69    37    38 1   
    70    37    65 1   
    71    37    66 1   
    72    38    39 1   
    73    38    67 1   
    74    38    68 1   
    75    39    40 1   
    76    40    41 1   
    77    40    69 1   
    78    40    70 1   
    79    41    71 1   
    80    41    72 1   
    81    73    75 2   
    82    74    77 1   
    83    74    78 1   
    84    74    79 1   
@<TRIPOS>SUBSTRUCTURE
     1 P39         1 TEMP              0 ****  ****    0 ROOT
