@<TRIPOS>MOLECULE
P39
   79    84     1     0     0
SMALL
No Charge or Current Charge


@<TRIPOS>ATOM
      1 C18        -10.7880     3.0510    -1.4530 ca         1 P39      -0.111000
      2 C17        -10.1500     1.8020    -1.5450 ca         1 P39      -0.099000
      3 C16         -9.6590     1.1630    -0.3880 ca         1 P39      -0.105300
      4 C15         -9.6420    -1.2750     0.3590 c3         1 P39      -0.101100
      5 C19        -10.9390     3.6740    -0.2030 ca         1 P39      -0.103000
      6 C20        -10.4490     3.0480     0.9540 ca         1 P39      -0.111000
      7 C21         -9.8110     1.7990     0.8640 ca         1 P39      -0.099000
      8 C23          0.3280    -2.2210     0.1740 ca         1 P39       0.313000
      9 C24          0.5500    -3.6100     0.2950 ca         1 P39      -0.131300
     10 C34          7.3660     0.2910    -0.1890 ca         1 P39      -0.103000
     11 C27          2.7480    -1.8270     0.1090 ca         1 P39      -0.004000
     12 C33          5.9500     0.3190    -0.1430 ca         1 P39      -0.125600
     13 N1          -3.6200     0.5270     1.0440 na         1 P39       0.289900
     14 N2          -2.9900     1.4450     1.8430 nc         1 P39      -0.301800
     15 C3          -1.6660     1.2340     1.9880 cd         1 P39       0.138900
     16 N4          -0.9120     0.1870     1.4270 nd         1 P39      -0.298000
     17 C5          -1.6000    -0.6450     0.6710 cc         1 P39       0.454900
     18 C6          -2.9850    -0.5050     0.4480 cc         1 P39      -0.277000
     19 C7          -3.9320    -1.2040    -0.2740 cd         1 P39      -0.027200
     20 C8          -5.1920    -0.5380    -0.0350 cd         1 P39      -0.221200
     21 C9          -4.9730     0.5580     0.7930 cc         1 P39      -0.146100
     22 N13         -7.5480    -0.0490    -0.1590 ns         1 P39      -0.507900
     23 C14         -8.9600    -0.1900    -0.5010 c3         1 P39       0.165000
     24 N22         -0.9770    -1.7280     0.1150 nu         1 P39      -0.927900
     25 C25          1.8710    -4.0950     0.3360 ca         1 P39      -0.069000
     26 C26          2.9610    -3.2140     0.2480 ca         1 P39      -0.136000
     27 C28          1.4260    -1.3480     0.0690 ca         1 P39      -0.159000
     28 C29         -0.6130    -4.5990     0.3920 c3         1 P39      -0.045800
     29 N30          3.7950    -0.8690     0.0030 ns         1 P39      -0.141000
     30 C31          5.1800    -0.9880    -0.0270 c          1 P39       0.621700
     31 O32          5.7650    -2.0650     0.0340 o          1 P39      -0.581100
     32 C35          8.1260     1.4720    -0.2980 ca         1 P39       0.294000
     33 C36          7.4550     2.7070    -0.3660 ca         1 P39      -0.154000
     34 C37          6.0530     2.7590    -0.3210 ca         1 P39      -0.085000
     35 C38          5.3030     1.5780    -0.2100 ca         1 P39      -0.127000
     36 N39          9.5410     1.4020    -0.3410 nh         1 P39      -0.789400
     37 C40         10.2980     0.6840     0.7380 c6         1 P39       0.159800
     38 C41         11.7220     0.2520     0.2750 c6         1 P39       0.147600
     39 O42         12.4420     1.3750    -0.2860 os         1 P39      -0.444000
     40 C43         11.7700     1.9460    -1.4330 c6         1 P39       0.147600
     41 C44         10.3480     2.4530    -1.0460 c6         1 P39       0.159800
     42 H18        -11.1650     3.5360    -2.3510 ha         1 P39       0.114500
     43 H17        -10.0370     1.3320    -2.5200 ha         1 P39       0.114500
     44 H15        -10.7050    -1.3510     0.1040 hc         1 P39       0.044700
     45 H15A        -9.1820    -2.2550     0.1840 hc         1 P39       0.044700
     46 H15B        -9.5580    -1.0460     1.4270 hc         1 P39       0.044700
     47 H19        -11.4330     4.6410    -0.1330 ha         1 P39       0.114000
     48 H20        -10.5640     3.5310     1.9230 ha         1 P39       0.114500
     49 H21         -9.4330     1.3280     1.7690 ha         1 P39       0.114500
     50 H3          -1.1080     1.9270     2.6060 h5         1 P39       0.055100
     51 H9          -5.6160     1.3170     1.2190 h4         1 P39       0.237000
     52 HN13        -7.2730     0.7480     0.3940 hn         1 P39       0.317500
     53 H14         -9.0190    -0.5170    -1.5490 h1         1 P39       0.071700
     54 HN22        -1.6590    -2.4200    -0.1700 hn         1 P39       0.514000
     55 H25          2.0580    -5.1630     0.4360 ha         1 P39       0.117000
     56 H26          3.9610    -3.6350     0.2860 ha         1 P39       0.151000
     57 H28          1.2500    -0.2840    -0.0560 ha         1 P39       0.133000
     58 H29         -1.1910    -4.6210    -0.5390 hc         1 P39       0.043033
     59 H29A        -0.2630    -5.6210     0.5820 hc         1 P39       0.043033
     60 H29B        -1.2940    -4.3340     1.2090 hc         1 P39       0.043033
     61 HN30         3.4650     0.0830    -0.0620 hn         1 P39       0.158000
     62 H36          8.0140     3.6340    -0.4420 ha         1 P39       0.116000
     63 H37          5.5450     3.7200    -0.3710 ha         1 P39       0.115000
     64 H38          4.2190     1.6620    -0.1780 ha         1 P39       0.117000
     65 H40         10.3960     1.3370     1.6180 h1         1 P39       0.049950
     66 H40A         9.7570    -0.2150     1.0670 h1         1 P39       0.049950
     67 H41         12.2860    -0.1470     1.1290 h1         1 P39       0.054700
     68 H41A        11.6430    -0.5420    -0.4820 h1         1 P39       0.054700
     69 H43         12.3690     2.7800    -1.8250 h1         1 P39       0.054700
     70 H43A        11.6910     1.1840    -2.2220 h1         1 P39       0.054700
     71 H44          9.8350     2.7750    -1.9640 h1         1 P39       0.049950
     72 H44A        10.4540     3.3390    -0.4020 h1         1 P39       0.049950
     73 C11         -6.5500    -0.9140    -0.5470 c          1 P39       0.640300
     74 C10         -3.7120    -2.4230    -1.1470 c3         1 P39      -0.040900
     75 O12         -6.7850    -1.8910    -1.2430 o          1 P39      -0.611100
     76 H34          7.8870    -0.6610    -0.1540 ha         1 P39       0.136000
     77 H10         -3.6650    -3.3370    -0.5440 hc         1 P39       0.052367
     78 H10A        -4.5040    -2.5540    -1.8890 hc         1 P39       0.052367
     79 H10B        -2.7860    -2.3410    -1.7260 hc         1 P39       0.052367
@<TRIPOS>BOND
     1     1     2 ar  
     2     1     5 ar  
     3     1    42 1   
     4     2     3 ar  
     5     2    43 1   
     6     3     7 ar  
     7     3    23 1   
     8     4    23 1   
     9     4    44 1   
    10     4    45 1   
    11     4    46 1   
    12     5     6 ar  
    13     5    47 1   
    14     6     7 ar  
    15     6    48 1   
    16     7    49 1   
    17     8     9 ar  
    18     8    24 1   
    19     8    27 ar  
    20     9    25 ar  
    21     9    28 1   
    22    10    12 ar  
    23    10    32 ar  
    24    10    76 1   
    25    11    26 ar  
    26    11    27 ar  
    27    11    29 1   
    28    12    30 1   
    29    12    35 ar  
    30    13    14 1   
    31    13    18 1   
    32    13    21 1   
    33    14    15 2   
    34    15    16 1   
    35    15    50 1   
    36    16    17 2   
    37    17    18 1   
    38    17    24 1   
    39    18    19 2   
    40    19    20 1   
    41    19    74 1   
    42    20    21 2   
    43    20    73 1   
    44    21    51 1   
    45    22    23 1   
    46    22    52 1   
    47    22    73 1   
    48    23    53 1   
    49    24    54 1   
    50    25    26 ar  
    51    25    55 1   
    52    26    56 1   
    53    27    57 1   
    54    28    58 1   
    55    28    59 1   
    56    28    60 1   
    57    29    30 1   
    58    29    61 1   
    59    30    31 2   
    60    32    33 ar  
    61    32    36 1   
    62    33    34 ar  
    63    33    62 1   
    64    34    35 ar  
    65    34    63 1   
    66    35    64 1   
    67    36    37 1   
    68    36    41 1   
    69    37    38 1   
    70    37    65 1   
    71    37    66 1   
    72    38    39 1   
    73    38    67 1   
    74    38    68 1   
    75    39    40 1   
    76    40    41 1   
    77    40    69 1   
    78    40    70 1   
    79    41    71 1   
    80    41    72 1   
    81    73    75 2   
    82    74    77 1   
    83    74    78 1   
    84    74    79 1   
@<TRIPOS>SUBSTRUCTURE
     1 P39         1 TEMP              0 ****  ****    0 ROOT
