@<TRIPOS>MOLECULE
P3A
  136   135     1     0     0
SMALL
abcg2


@<TRIPOS>ATOM
      1 O43         -0.1040    -1.4230     4.7960 o          1 P3A      -0.524000
      2 C42         -0.4470    -1.4470     3.6390 c          1 P3A       0.634100
      3 C44          0.3630    -0.9300     2.4840 c3         1 P3A      -0.129400
      4 C45          1.7480    -0.4500     2.8850 c3         1 P3A      -0.061400
      5 C46          2.4830     0.2170     1.7300 c3         1 P3A      -0.081400
      6 C47          3.8490     0.7540     2.1320 c3         1 P3A      -0.063400
      7 C48          4.5670     1.4790     1.0010 c3         1 P3A      -0.080400
      8 C49          5.9080     2.0620     1.4250 c3         1 P3A      -0.071400
      9 C50          6.6340     2.7920     0.3030 c3         1 P3A      -0.074400
     10 C51          7.9970     3.3340     0.7160 c3         1 P3A      -0.080400
     11 C52          8.7230     4.0670    -0.4050 c3         1 P3A      -0.072400
     12 C53         10.1050     4.5630    -0.0010 c3         1 P3A      -0.077400
     13 C54         10.8500     5.2590    -1.1330 c3         1 P3A      -0.075400
     14 C55         12.2300     5.7610    -0.7290 c3         1 P3A      -0.075400
     15 C56         12.9760     6.4470    -1.8670 c3         1 P3A      -0.076400
     16 C57         14.3610     6.9440    -1.4700 c3         1 P3A      -0.075400
     17 C58         15.0920     7.6330    -2.6140 c3         1 P3A      -0.087100
     18 O41         -1.6390    -1.8770     3.2420 os         1 P3A      -0.413100
     19 C40         -2.4900    -2.4650     4.2130 c3         1 P3A       0.175600
     20 C38         -3.5070    -3.3550     3.5340 c3         1 P3A       0.151300
     21 C39         -2.9450    -4.6350     2.9410 c3         1 P3A       0.216600
     22 O19         -1.9920    -4.3940     1.9310 os         1 P3A      -0.555400
     23 P16         -0.4740    -4.9740     2.1700 p5         1 P3A       1.383800
     24 O17          0.2300    -4.2230     3.2600 o          1 P3A      -0.836500
     25 O18         -0.5150    -6.4730     2.2380 o          1 P3A      -0.836500
     26 O15          0.0430    -4.4890     0.6920 os         1 P3A      -0.570400
     27 C14          1.3480    -4.8760     0.3080 c3         1 P3A       0.223600
     28 C6           2.3140    -3.7040     0.3040 c3         1 P3A       0.123300
     29 O7           1.8370    -2.7520    -0.6110 oh         1 P3A      -0.707000
     30 C8           3.7010    -4.2390    -0.0430 c3         1 P3A       0.175600
     31 O9           4.7300    -3.2750     0.1220 os         1 P3A      -0.593400
     32 P10          5.1300    -2.3250    -1.1470 p5         1 P3A       1.400800
     33 O12          5.6570    -3.1390    -2.2870 o          1 P3A      -0.830000
     34 O13          3.9990    -1.3570    -1.4170 o          1 P3A      -0.830000
     35 O11          6.3480    -1.5810    -0.3580 os         1 P3A      -0.567400
     36 C1           7.2690    -0.8230    -1.1130 c3         1 P3A       0.193600
     37 C2           8.4810    -0.5090    -0.2480 c3         1 P3A       0.160300
     38 C4           9.4490     0.3650    -1.0280 c3         1 P3A       0.114600
     39 O5          10.4950     0.7660    -0.1760 oh         1 P3A      -0.650000
     40 O3           9.0920    -1.6700     0.2590 oh         1 P3A      -0.629000
     41 O37         -4.1710    -2.5650     2.5400 os         1 P3A      -0.408100
     42 C21         -5.4500    -2.8110     2.2650 c          1 P3A       0.600100
     43 O20         -6.0940    -3.6750     2.8050 o          1 P3A      -0.526000
     44 C22         -5.9690    -1.8830     1.2010 c3         1 P3A      -0.144400
     45 C23         -7.4790    -1.9330     1.0320 c3         1 P3A      -0.065400
     46 C24         -7.9610    -0.9610    -0.0380 c3         1 P3A      -0.078400
     47 C25         -9.4750    -0.9640    -0.2030 c3         1 P3A      -0.073400
     48 C26         -9.9630     0.0280    -1.2500 c3         1 P3A      -0.076400
     49 C27        -11.4780     0.0390    -1.4100 c3         1 P3A      -0.071400
     50 C28        -11.9560     1.0760    -2.4280 c3         1 P3A      -0.047200
     51 C29        -13.4350     1.0220    -2.6510 c2         1 P3A      -0.205200
     52 C30        -14.3490     1.8880    -2.2150 c2         1 P3A      -0.226200
     53 C31        -14.1120     3.1310    -1.4160 c3         1 P3A      -0.041200
     54 C32        -14.3380     4.4060    -2.2310 c3         1 P3A      -0.071400
     55 C33        -14.1960     5.6710    -1.3950 c3         1 P3A      -0.076400
     56 C34        -14.3830     6.9500    -2.2010 c3         1 P3A      -0.075400
     57 C35        -14.2630     8.2150    -1.3590 c3         1 P3A      -0.075400
     58 C36        -14.4460     9.4870    -2.1740 c3         1 P3A      -0.088100
     59 H441         0.4280    -1.7100     1.7220 hc         1 P3A       0.081700
     60 H442        -0.2000    -0.1090     2.0250 hc         1 P3A       0.081700
     61 H451         1.6690     0.2570     3.7150 hc         1 P3A       0.044200
     62 H452         2.3360    -1.2960     3.2540 hc         1 P3A       0.044200
     63 H461         2.6000    -0.4900     0.9040 hc         1 P3A       0.052700
     64 H462         1.8720     1.0420     1.3440 hc         1 P3A       0.052700
     65 H471         3.7360     1.4330     2.9850 hc         1 P3A       0.028200
     66 H472         4.4740    -0.0750     2.4830 hc         1 P3A       0.028200
     67 H481         4.7090     0.7820     0.1700 hc         1 P3A       0.052700
     68 H482         3.9280     2.2860     0.6240 hc         1 P3A       0.052700
     69 H491         5.7590     2.7500     2.2650 hc         1 P3A       0.031700
     70 H492         6.5440     1.2560     1.8100 hc         1 P3A       0.031700
     71 H501         6.7550     2.1130    -0.5490 hc         1 P3A       0.035700
     72 H502         6.0090     3.6160    -0.0600 hc         1 P3A       0.035700
     73 H511         7.8760     4.0080     1.5710 hc         1 P3A       0.040200
     74 H512         8.6240     2.5070     1.0670 hc         1 P3A       0.040200
     75 H521         8.8190     3.4020    -1.2700 hc         1 P3A       0.032200
     76 H522         8.1160     4.9140    -0.7440 hc         1 P3A       0.032200
     77 H531        10.0120     5.2480     0.8490 hc         1 P3A       0.038200
     78 H532        10.6990     3.7150     0.3580 hc         1 P3A       0.038200
     79 H541        10.9490     4.5680    -1.9770 hc         1 P3A       0.034200
     80 H542        10.2510     6.1010    -1.4990 hc         1 P3A       0.034200
     81 H551        12.1320     6.4570     0.1110 hc         1 P3A       0.036200
     82 H552        12.8270     4.9200    -0.3580 hc         1 P3A       0.036200
     83 H561        13.0700     5.7520    -2.7090 hc         1 P3A       0.035700
     84 H562        12.3810     7.2900    -2.2360 hc         1 P3A       0.035700
     85 H571        14.2680     7.6360    -0.6270 hc         1 P3A       0.035700
     86 H572        14.9570     6.1010    -1.1050 hc         1 P3A       0.035700
     87 H581        14.5410     8.5100    -2.9600 hc         1 P3A       0.027700
     88 H582        16.0860     7.9670    -2.3130 hc         1 P3A       0.027700
     89 H583        15.2120     6.9630    -3.4670 hc         1 P3A       0.027700
     90 H401        -1.9250    -3.0700     4.9250 h1         1 P3A       0.045700
     91 H402        -3.0040    -1.6810     4.7770 h1         1 P3A       0.045700
     92 H38         -4.2170    -3.6560     4.3110 h1         1 P3A       0.040700
     93 H391        -2.5430    -5.2200     3.7760 h1         1 P3A       0.028200
     94 H392        -3.7640    -5.2280     2.5230 h1         1 P3A       0.028200
     95 H141         1.7420    -5.6680     0.9540 h1         1 P3A       0.019200
     96 H142         1.2880    -5.2970    -0.7020 h1         1 P3A       0.019200
     97 H6           2.3580    -3.2900     1.3250 h1         1 P3A       0.049700
     98 HO7          2.5580    -2.1250    -0.8420 ho         1 P3A       0.496000
     99 H81          3.9420    -5.0660     0.6300 h1         1 P3A       0.028700
    100 H82          3.6990    -4.6460    -1.0620 h1         1 P3A       0.028700
    101 H11          7.5850    -1.3680    -2.0110 h1         1 P3A       0.020200
    102 H12          6.8140     0.1170    -1.4490 h1         1 P3A       0.020200
    103 H2           8.1420     0.0550     0.6280 h1         1 P3A       0.090700
    104 H41          9.8260    -0.1970    -1.8960 h1         1 P3A       0.014700
    105 H42          8.9000     1.2280    -1.4240 h1         1 P3A       0.014700
    106 HO5         11.0840     1.3370    -0.6760 ho         1 P3A       0.422000
    107 HO3          9.4150    -2.1970    -0.4800 ho         1 P3A       0.428000
    108 H221        -5.6390    -0.8660     1.4320 hc         1 P3A       0.076200
    109 H222        -5.4710    -2.1460     0.2610 hc         1 P3A       0.076200
    110 H231        -7.7930    -2.9470     0.7710 hc         1 P3A       0.047200
    111 H232        -7.9640    -1.6920     1.9820 hc         1 P3A       0.047200
    112 H241        -7.6270     0.0520     0.2140 hc         1 P3A       0.039200
    113 H242        -7.4890    -1.2070    -0.9960 hc         1 P3A       0.039200
    114 H251        -9.8110    -1.9720    -0.4690 hc         1 P3A       0.036200
    115 H252        -9.9440    -0.7320     0.7600 hc         1 P3A       0.036200
    116 H261        -9.6200     1.0330    -0.9830 hc         1 P3A       0.037700
    117 H262        -9.4990    -0.2050    -2.2160 hc         1 P3A       0.037700
    118 H271       -11.8230    -0.9560    -1.7090 hc         1 P3A       0.037700
    119 H272       -11.9480     0.2480    -0.4430 hc         1 P3A       0.037700
    120 H281       -11.6420     2.0700    -2.1020 hc         1 P3A       0.044700
    121 H282       -11.4480     0.8920    -3.3810 hc         1 P3A       0.044700
    122 H29        -13.7860     0.1610    -3.2150 ha         1 P3A       0.163000
    123 H30        -15.3880     1.6930    -2.4700 ha         1 P3A       0.159000
    124 H311       -14.8000     3.1350    -0.5630 hc         1 P3A       0.044200
    125 H312       -13.1040     3.1460    -0.9950 hc         1 P3A       0.044200
    126 H321       -13.6250     4.4300    -3.0610 hc         1 P3A       0.037700
    127 H322       -15.3340     4.3790    -2.6860 hc         1 P3A       0.037700
    128 H331       -14.9250     5.6480    -0.5770 hc         1 P3A       0.037700
    129 H332       -13.2080     5.6830    -0.9200 hc         1 P3A       0.037700
    130 H341       -13.6440     6.9820    -3.0090 hc         1 P3A       0.036200
    131 H342       -15.3640     6.9330    -2.6890 hc         1 P3A       0.036200
    132 H351       -15.0060     8.1850    -0.5550 hc         1 P3A       0.037200
    133 H352       -13.2860     8.2300    -0.8670 hc         1 P3A       0.037200
    134 H361       -13.6920     9.5650    -2.9600 hc         1 P3A       0.029367
    135 H362       -15.4250     9.5070    -2.6580 hc         1 P3A       0.029367
    136 H363       -14.3680    10.3800    -1.5520 hc         1 P3A       0.029367
@<TRIPOS>BOND
     1     1     2 2   
     2     2     3 1   
     3     2    18 1   
     4     3     4 1   
     5     3    59 1   
     6     3    60 1   
     7     4     5 1   
     8     4    61 1   
     9     4    62 1   
    10     5     6 1   
    11     5    63 1   
    12     5    64 1   
    13     6     7 1   
    14     6    65 1   
    15     6    66 1   
    16     7     8 1   
    17     7    67 1   
    18     7    68 1   
    19     8     9 1   
    20     8    69 1   
    21     8    70 1   
    22     9    10 1   
    23     9    71 1   
    24     9    72 1   
    25    10    11 1   
    26    10    73 1   
    27    10    74 1   
    28    11    12 1   
    29    11    75 1   
    30    11    76 1   
    31    12    13 1   
    32    12    77 1   
    33    12    78 1   
    34    13    14 1   
    35    13    79 1   
    36    13    80 1   
    37    14    15 1   
    38    14    81 1   
    39    14    82 1   
    40    15    16 1   
    41    15    83 1   
    42    15    84 1   
    43    16    17 1   
    44    16    85 1   
    45    16    86 1   
    46    17    87 1   
    47    17    88 1   
    48    17    89 1   
    49    18    19 1   
    50    19    20 1   
    51    19    90 1   
    52    19    91 1   
    53    20    21 1   
    54    20    41 1   
    55    20    92 1   
    56    21    22 1   
    57    21    93 1   
    58    21    94 1   
    59    22    23 1   
    60    23    24 1   
    61    23    25 1   
    62    23    26 1   
    63    26    27 1   
    64    27    28 1   
    65    27    95 1   
    66    27    96 1   
    67    28    29 1   
    68    28    30 1   
    69    28    97 1   
    70    29    98 1   
    71    30    31 1   
    72    30    99 1   
    73    30   100 1   
    74    31    32 1   
    75    32    33 1   
    76    32    34 1   
    77    32    35 1   
    78    35    36 1   
    79    36    37 1   
    80    36   101 1   
    81    36   102 1   
    82    37    38 1   
    83    37    40 1   
    84    37   103 1   
    85    38    39 1   
    86    38   104 1   
    87    38   105 1   
    88    39   106 1   
    89    40   107 1   
    90    41    42 1   
    91    42    43 2   
    92    42    44 1   
    93    44    45 1   
    94    44   108 1   
    95    44   109 1   
    96    45    46 1   
    97    45   110 1   
    98    45   111 1   
    99    46    47 1   
   100    46   112 1   
   101    46   113 1   
   102    47    48 1   
   103    47   114 1   
   104    47   115 1   
   105    48    49 1   
   106    48   116 1   
   107    48   117 1   
   108    49    50 1   
   109    49   118 1   
   110    49   119 1   
   111    50    51 1   
   112    50   120 1   
   113    50   121 1   
   114    51    52 2   
   115    51   122 1   
   116    52    53 1   
   117    52   123 1   
   118    53    54 1   
   119    53   124 1   
   120    53   125 1   
   121    54    55 1   
   122    54   126 1   
   123    54   127 1   
   124    55    56 1   
   125    55   128 1   
   126    55   129 1   
   127    56    57 1   
   128    56   130 1   
   129    56   131 1   
   130    57    58 1   
   131    57   132 1   
   132    57   133 1   
   133    58   134 1   
   134    58   135 1   
   135    58   136 1   
@<TRIPOS>SUBSTRUCTURE
     1 P3A         1 TEMP              0 ****  ****    0 ROOT
