@<TRIPOS>MOLECULE
P3A
  136   135     1     0     0
SMALL
No Charge or Current Charge


@<TRIPOS>ATOM
      1 O43         -1.8890     0.7610     4.7510 o          1 P3A      -0.524000
      2 C42         -1.6040     0.6680     3.5630 c          1 P3A       0.634100
      3 C44         -0.7780     1.7020     2.7980 c3         1 P3A      -0.129400
      4 C45          0.7360     1.4220     2.9580 c3         1 P3A      -0.061400
      5 C46          1.6200     2.3130     2.0590 c3         1 P3A      -0.081400
      6 C47          3.1310     2.1000     2.2990 c3         1 P3A      -0.063400
      7 C48          4.0160     2.9420     1.3550 c3         1 P3A      -0.080400
      8 C49          5.5220     2.8420     1.6830 c3         1 P3A      -0.071400
      9 C50          6.3990     3.6480     0.7020 c3         1 P3A      -0.074400
     10 C51          7.9000     3.6290     1.0680 c3         1 P3A      -0.080400
     11 C52          8.7830     4.2790    -0.0200 c3         1 P3A      -0.072400
     12 C53         10.2920     4.2230     0.3030 c3         1 P3A      -0.077400
     13 C54         11.1660     4.8350    -0.8140 c3         1 P3A      -0.075400
     14 C55         12.6790     4.7640    -0.5120 c3         1 P3A      -0.075400
     15 C56         13.5450     5.3580    -1.6450 c3         1 P3A      -0.076400
     16 C57         15.0600     5.2840    -1.3540 c3         1 P3A      -0.075400
     17 C58         15.9210     5.8690    -2.4910 c3         1 P3A      -0.087100
     18 O41         -1.9580    -0.3790     2.7590 os         1 P3A      -0.413100
     19 C40         -2.6220    -1.5100     3.3570 c3         1 P3A       0.175600
     20 C38         -2.7890    -2.6180     2.2850 c3         1 P3A       0.151300
     21 C39         -1.4750    -2.9120     1.4940 c3         1 P3A       0.216600
     22 O19         -0.3510    -3.0480     2.3790 os         1 P3A      -0.555400
     23 P16         -0.0200    -4.4400     3.1160 p5         1 P3A       1.383800
     24 O17          1.0420    -4.2690     4.1510 o          1 P3A      -0.836500
     25 O18         -1.2460    -5.0550     3.7020 o          1 P3A      -0.836500
     26 O15          0.5260    -5.2940     1.8600 os         1 P3A      -0.570400
     27 C14          1.8610    -5.1280     1.3350 c3         1 P3A       0.223600
     28 C6           2.0490    -3.7620     0.5940 c3         1 P3A       0.123300
     29 O7           1.1130    -3.6510    -0.5040 oh         1 P3A      -0.707000
     30 C8           3.5220    -3.6040     0.0930 c3         1 P3A       0.175600
     31 O9           3.8320    -2.2350    -0.2410 os         1 P3A      -0.593400
     32 P10          3.2840    -1.5220    -1.5820 p5         1 P3A       1.400800
     33 O12          3.7070    -2.2180    -2.8310 o          1 P3A      -0.830000
     34 O13          1.7990    -1.3860    -1.5120 o          1 P3A      -0.830000
     35 O11          3.9870    -0.0770    -1.4200 os         1 P3A      -0.567400
     36 C1           5.3430     0.2040    -1.8240 c3         1 P3A       0.193600
     37 C2           6.3960    -0.5720    -0.9700 c3         1 P3A       0.160300
     38 C4           7.7450     0.1920    -0.9030 c3         1 P3A       0.114600
     39 O5           8.7130    -0.5630    -0.1550 oh         1 P3A      -0.650000
     40 O3           6.6740    -1.8760    -1.5150 oh         1 P3A      -0.629000
     41 O37         -3.7980    -2.1590     1.3520 os         1 P3A      -0.408100
     42 C21         -4.3750    -3.0560     0.4910 c          1 P3A       0.600100
     43 O20         -4.1710    -4.2620     0.5010 o          1 P3A      -0.526000
     44 C22         -5.3280    -2.3670    -0.4870 c3         1 P3A      -0.144400
     45 C23         -6.7810    -2.3510     0.0420 c3         1 P3A      -0.065400
     46 C24         -7.7580    -1.6490    -0.9280 c3         1 P3A      -0.078400
     47 C25         -9.2090    -1.5930    -0.4020 c3         1 P3A      -0.073400
     48 C26        -10.1690    -0.8830    -1.3810 c3         1 P3A      -0.076400
     49 C27        -11.6170    -0.7780    -0.8530 c3         1 P3A      -0.071400
     50 C28        -12.5590    -0.0480    -1.8330 c3         1 P3A      -0.047200
     51 C29        -13.9550     0.1370    -1.2680 c2         1 P3A      -0.205200
     52 C30        -14.4150     1.2150    -0.6080 c2         1 P3A      -0.226200
     53 C31        -13.6240     2.4580    -0.2440 c3         1 P3A      -0.041200
     54 C32        -13.7450     3.5640    -1.3130 c3         1 P3A      -0.071400
     55 C33        -12.8940     4.8120    -0.9900 c3         1 P3A      -0.076400
     56 C34        -12.9890     5.9090    -2.0730 c3         1 P3A      -0.075400
     57 C35        -12.1270     7.1500    -1.7510 c3         1 P3A      -0.075400
     58 C36        -12.2110     8.2420    -2.8350 c3         1 P3A      -0.088100
     59 H441        -1.0180     1.6270     1.7310 hc         1 P3A       0.081700
     60 H442        -1.0040     2.7050     3.1780 hc         1 P3A       0.081700
     61 H451         1.0180     1.5680     4.0090 hc         1 P3A       0.044200
     62 H452         0.9360     0.3690     2.7190 hc         1 P3A       0.044200
     63 H461         1.3870     2.1040     1.0070 hc         1 P3A       0.052700
     64 H462         1.3730     3.3670     2.2390 hc         1 P3A       0.052700
     65 H471         3.3670     2.3550     3.3400 hc         1 P3A       0.028200
     66 H472         3.3760     1.0380     2.1640 hc         1 P3A       0.028200
     67 H481         3.8470     2.6170     0.3210 hc         1 P3A       0.052700
     68 H482         3.7080     3.9940     1.4140 hc         1 P3A       0.052700
     69 H491         5.6940     3.2030     2.7040 hc         1 P3A       0.031700
     70 H492         5.8290     1.7880     1.6570 hc         1 P3A       0.031700
     71 H501         6.2650     3.2420    -0.3080 hc         1 P3A       0.035700
     72 H502         6.0530     4.6890     0.6760 hc         1 P3A       0.035700
     73 H511         8.0470     4.1570     2.0190 hc         1 P3A       0.040200
     74 H512         8.2270     2.5940     1.2270 hc         1 P3A       0.040200
     75 H521         8.6040     3.7700    -0.9760 hc         1 P3A       0.032200
     76 H522         8.4800     5.3260    -0.1530 hc         1 P3A       0.032200
     77 H531        10.4810     4.7530     1.2450 hc         1 P3A       0.038200
     78 H532        10.5880     3.1770     0.4580 hc         1 P3A       0.038200
     79 H541        10.9640     4.3100    -1.7560 hc         1 P3A       0.034200
     80 H542        10.8760     5.8840    -0.9640 hc         1 P3A       0.034200
     81 H551        12.8870     5.3020     0.4220 hc         1 P3A       0.036200
     82 H552        12.9660     3.7170    -0.3510 hc         1 P3A       0.036200
     83 H561        13.3330     4.8220    -2.5790 hc         1 P3A       0.035700
     84 H562        13.2600     6.4050    -1.8070 hc         1 P3A       0.035700
     85 H571        15.2790     5.8260    -0.4250 hc         1 P3A       0.035700
     86 H572        15.3490     4.2380    -1.1910 hc         1 P3A       0.035700
     87 H581        15.6800     6.9270    -2.6560 hc         1 P3A       0.027700
     88 H582        16.9870     5.7950    -2.2410 hc         1 P3A       0.027700
     89 H583        15.7500     5.3250    -3.4280 hc         1 P3A       0.027700
     90 H401        -2.0250    -1.9090     4.1870 h1         1 P3A       0.045700
     91 H402        -3.6060    -1.2260     3.7520 h1         1 P3A       0.045700
     92 H38         -3.1320    -3.5280     2.7910 h1         1 P3A       0.040700
     93 H391        -1.6030    -3.8230     0.8960 h1         1 P3A       0.028200
     94 H392        -1.2890    -2.0880     0.7940 h1         1 P3A       0.028200
     95 H141         2.5970    -5.1950     2.1470 h1         1 P3A       0.019200
     96 H142         2.0860    -5.9430     0.6340 h1         1 P3A       0.019200
     97 H6           1.8790    -2.9540     1.3170 h1         1 P3A       0.049700
     98 HO7          1.2730    -2.7420    -0.9060 ho         1 P3A       0.496000
     99 H81          4.1990    -3.9380     0.8900 h1         1 P3A       0.028700
    100 H82          3.6890    -4.2650    -0.7680 h1         1 P3A       0.028700
    101 H11          5.4870    -0.0250    -2.8890 h1         1 P3A       0.020200
    102 H12          5.5250     1.2800    -1.7060 h1         1 P3A       0.020200
    103 H2           6.0130    -0.6520     0.0570 h1         1 P3A       0.090700
    104 H41          8.1120     0.3740    -1.9220 h1         1 P3A       0.014700
    105 H42          7.5790     1.1680    -0.4330 h1         1 P3A       0.014700
    106 HO5          9.5280    -0.0170    -0.1020 ho         1 P3A       0.422000
    107 HO3          7.5540    -2.1110    -1.1430 ho         1 P3A       0.428000
    108 H221        -5.0140    -1.3230    -0.6090 hc         1 P3A       0.076200
    109 H222        -5.2990    -2.8940    -1.4470 hc         1 P3A       0.076200
    110 H231        -7.1170    -3.3820     0.2120 hc         1 P3A       0.047200
    111 H232        -6.8060    -1.8400     1.0130 hc         1 P3A       0.047200
    112 H241        -7.4060    -0.6270    -1.1140 hc         1 P3A       0.039200
    113 H242        -7.7450    -2.1720    -1.8920 hc         1 P3A       0.039200
    114 H251        -9.5690    -2.6130    -0.2170 hc         1 P3A       0.036200
    115 H252        -9.2230    -1.0690     0.5620 hc         1 P3A       0.036200
    116 H261        -9.7900     0.1270    -1.5830 hc         1 P3A       0.037700
    117 H262       -10.1720    -1.4210    -2.3370 hc         1 P3A       0.037700
    118 H271       -12.0090    -1.7840    -0.6570 hc         1 P3A       0.037700
    119 H272       -11.6120    -0.2440     0.1050 hc         1 P3A       0.037700
    120 H281       -12.1200     0.9230    -2.0900 hc         1 P3A       0.044700
    121 H282       -12.6120    -0.6120    -2.7730 hc         1 P3A       0.044700
    122 H29        -14.6240    -0.7050    -1.4590 ha         1 P3A       0.163000
    123 H30        -15.4510     1.2340    -0.2630 ha         1 P3A       0.159000
    124 H311       -13.9700     2.8470     0.7220 hc         1 P3A       0.044200
    125 H312       -12.5650     2.2090    -0.1070 hc         1 P3A       0.044200
    126 H321       -13.4330     3.1580    -2.2840 hc         1 P3A       0.037700
    127 H322       -14.7970     3.8560    -1.4120 hc         1 P3A       0.037700
    128 H331       -13.2140     5.2270    -0.0260 hc         1 P3A       0.037700
    129 H332       -11.8440     4.5110    -0.8770 hc         1 P3A       0.037700
    130 H341       -12.6740     5.4920    -3.0370 hc         1 P3A       0.036200
    131 H342       -14.0370     6.2160    -2.1830 hc         1 P3A       0.036200
    132 H351       -12.4460     7.5750    -0.7910 hc         1 P3A       0.037200
    133 H352       -11.0800     6.8440    -1.6340 hc         1 P3A       0.037200
    134 H361       -11.8630     7.8570    -3.8010 hc         1 P3A       0.029367
    135 H362       -13.2430     8.5940    -2.9530 hc         1 P3A       0.029367
    136 H363       -11.5840     9.0990    -2.5620 hc         1 P3A       0.029367
@<TRIPOS>BOND
     1     1     2 2   
     2     2     3 1   
     3     2    18 1   
     4     3     4 1   
     5     3    59 1   
     6     3    60 1   
     7     4     5 1   
     8     4    61 1   
     9     4    62 1   
    10     5     6 1   
    11     5    63 1   
    12     5    64 1   
    13     6     7 1   
    14     6    65 1   
    15     6    66 1   
    16     7     8 1   
    17     7    67 1   
    18     7    68 1   
    19     8     9 1   
    20     8    69 1   
    21     8    70 1   
    22     9    10 1   
    23     9    71 1   
    24     9    72 1   
    25    10    11 1   
    26    10    73 1   
    27    10    74 1   
    28    11    12 1   
    29    11    75 1   
    30    11    76 1   
    31    12    13 1   
    32    12    77 1   
    33    12    78 1   
    34    13    14 1   
    35    13    79 1   
    36    13    80 1   
    37    14    15 1   
    38    14    81 1   
    39    14    82 1   
    40    15    16 1   
    41    15    83 1   
    42    15    84 1   
    43    16    17 1   
    44    16    85 1   
    45    16    86 1   
    46    17    87 1   
    47    17    88 1   
    48    17    89 1   
    49    18    19 1   
    50    19    20 1   
    51    19    90 1   
    52    19    91 1   
    53    20    21 1   
    54    20    41 1   
    55    20    92 1   
    56    21    22 1   
    57    21    93 1   
    58    21    94 1   
    59    22    23 1   
    60    23    24 1   
    61    23    25 1   
    62    23    26 1   
    63    26    27 1   
    64    27    28 1   
    65    27    95 1   
    66    27    96 1   
    67    28    29 1   
    68    28    30 1   
    69    28    97 1   
    70    29    98 1   
    71    30    31 1   
    72    30    99 1   
    73    30   100 1   
    74    31    32 1   
    75    32    33 1   
    76    32    34 1   
    77    32    35 1   
    78    35    36 1   
    79    36    37 1   
    80    36   101 1   
    81    36   102 1   
    82    37    38 1   
    83    37    40 1   
    84    37   103 1   
    85    38    39 1   
    86    38   104 1   
    87    38   105 1   
    88    39   106 1   
    89    40   107 1   
    90    41    42 1   
    91    42    43 2   
    92    42    44 1   
    93    44    45 1   
    94    44   108 1   
    95    44   109 1   
    96    45    46 1   
    97    45   110 1   
    98    45   111 1   
    99    46    47 1   
   100    46   112 1   
   101    46   113 1   
   102    47    48 1   
   103    47   114 1   
   104    47   115 1   
   105    48    49 1   
   106    48   116 1   
   107    48   117 1   
   108    49    50 1   
   109    49   118 1   
   110    49   119 1   
   111    50    51 1   
   112    50   120 1   
   113    50   121 1   
   114    51    52 2   
   115    51   122 1   
   116    52    53 1   
   117    52   123 1   
   118    53    54 1   
   119    53   124 1   
   120    53   125 1   
   121    54    55 1   
   122    54   126 1   
   123    54   127 1   
   124    55    56 1   
   125    55   128 1   
   126    55   129 1   
   127    56    57 1   
   128    56   130 1   
   129    56   131 1   
   130    57    58 1   
   131    57   132 1   
   132    57   133 1   
   133    58   134 1   
   134    58   135 1   
   135    58   136 1   
@<TRIPOS>SUBSTRUCTURE
     1 P3A         1 TEMP              0 ****  ****    0 ROOT
