@<TRIPOS>MOLECULE
P3E
   92    98     1     0     0
SMALL
No Charge or Current Charge


@<TRIPOS>ATOM
      1 C1          81.2390   -68.4980   -13.1920 cc         1 P3E       0.682800
      2 C2          80.6000   -66.3360   -13.3130 cd         1 P3E       0.107400
      3 C3          79.6980   -66.5090   -12.2980 cc         1 P3E       0.095500
      4 C4          79.5340   -67.8350   -11.6520 c          1 P3E       0.520500
      5 O1          78.7600   -68.1090   -10.7450 o          1 P3E      -0.548000
      6 C5          81.2670   -64.3610   -14.7670 c5         1 P3E       0.289300
      7 C6          80.6320   -64.3660   -16.2010 c5         1 P3E       0.154300
      8 C7          81.3800   -63.1320   -16.8140 c5         1 P3E       0.122300
      9 C8          81.3040   -62.1380   -15.6030 c5         1 P3E       0.125300
     10 C9          80.0100   -61.2670   -15.5290 c3         1 P3E       0.217600
     11 C10         79.5480   -64.4370   -12.8830 cd         1 P3E       0.455400
     12 C11         75.3860   -69.7210   -16.5620 cc         1 P3E       0.028700
     13 C12         76.6170   -73.8260   -17.7210 cc         1 P3E       0.759800
     14 C13         74.3810   -73.0520   -17.8310 c          1 P3E       0.638600
     15 C14         74.9590   -71.8120   -17.3170 cc         1 P3E      -0.351600
     16 C15         76.3030   -71.7010   -17.0540 cd         1 P3E       0.190400
     17 C16         77.8970   -69.8820   -16.3510 c5         1 P3E       0.256300
     18 C17         78.5620   -69.1210   -17.5560 c5         1 P3E       0.114300
     19 C18         77.9720   -67.7080   -17.2930 c5         1 P3E       0.185300
     20 C19         78.1630   -67.6150   -15.7560 c5         1 P3E       0.080300
     21 C20         77.4040   -66.4920   -14.9910 c3         1 P3E       0.211600
     22 C22         72.7540   -69.4710   -18.5510 ca         1 P3E      -0.154300
     23 C23         72.0330   -69.5440   -20.8790 ca         1 P3E      -0.130000
     24 C24         72.2170   -70.1810   -19.6410 ca         1 P3E      -0.106000
     25 C25         72.3870   -68.1940   -21.0370 ca         1 P3E      -0.107000
     26 C26         73.1020   -68.1130   -18.7140 ca         1 P3E      -0.068000
     27 C27         72.9250   -67.4720   -19.9550 ca         1 P3E      -0.032300
     28 C28         73.3160   -66.0110   -20.1150 c3         1 P3E      -0.073800
     29 N1          80.3690   -68.7640   -12.1910 ns         1 P3E      -0.466400
     30 N2          81.9910   -69.5140   -13.5750 nv         1 P3E      -1.064200
     31 N3          81.4280   -67.3480   -13.8010 nd         1 P3E      -0.647100
     32 N4          79.0420   -65.3310   -12.0280 nc         1 P3E      -0.620000
     33 N5          80.5040   -65.0220   -13.7120 na         1 P3E      -0.165500
     34 N6          74.3830   -70.5660   -17.0180 na         1 P3E       0.040300
     35 N7          77.1960   -72.7430   -17.2670 nd         1 P3E      -0.695100
     36 N8          77.4040   -74.8610   -17.9370 nv         1 P3E      -1.052200
     37 N9          75.3150   -74.0090   -17.9920 ns         1 P3E      -0.454400
     38 N10         76.5600   -70.4320   -16.6050 na         1 P3E       0.022000
     39 O2          80.8460   -65.5930   -16.9430 oh         1 P3E      -0.732000
     40 O3          82.7550   -63.4170   -17.1690 oh         1 P3E      -0.716000
     41 O4          81.4560   -62.9660   -14.4150 os         1 P3E      -0.455000
     42 O5          78.9010   -62.0090   -15.0040 os         1 P3E      -0.593400
     43 O6          76.9120   -60.7950   -16.0640 o          1 P3E      -0.846500
     44 O7          77.7710   -60.0060   -13.9020 o          1 P3E      -0.846500
     45 O8          76.7630   -62.2840   -13.9130 os         1 P3E      -0.720800
     46 O9          77.8040   -68.9270   -15.2560 os         1 P3E      -0.415000
     47 O11         79.9980   -69.1190   -17.5080 oh         1 P3E      -0.652000
     48 O12         78.6240   -66.6460   -18.0020 oh         1 P3E      -0.777000
     49 O13         76.1130   -66.1880   -15.5690 os         1 P3E      -0.624400
     50 O14         74.4470   -64.7540   -16.8890 o          1 P3E      -0.858000
     51 O15         76.6880   -65.1240   -17.8110 o          1 P3E      -0.858000
     52 O16         76.5400   -63.7900   -15.7240 os         1 P3E      -0.718800
     53 O17         75.1160   -64.1010   -13.6360 o          1 P3E      -0.865500
     54 O18         74.5390   -62.2400   -15.1380 o          1 P3E      -0.865500
     55 P1          77.5280   -61.1990   -14.7670 p5         1 P3E       1.462800
     56 P2          75.8880   -64.9370   -16.5660 p5         1 P3E       1.508800
     57 P3          75.6360   -63.1190   -14.6320 p5         1 P3E       1.539800
     58 H1          82.2450   -64.8570   -14.8010 h2         1 P3E       0.083700
     59 H2          79.5560   -64.1490   -16.1260 h1         1 P3E       0.102700
     60 H3          80.8300   -62.7400   -17.6830 h1         1 P3E       0.101700
     61 H4          82.1490   -61.4380   -15.6400 h1         1 P3E       0.028700
     62 H5          79.7810   -60.8800   -16.5310 h1         1 P3E       0.022700
     63 H6          80.2260   -60.4050   -14.8850 h1         1 P3E       0.022700
     64 H7          79.2810   -63.3890   -12.9570 h5         1 P3E       0.127100
     65 H8          75.2640   -68.6970   -16.2270 h5         1 P3E       0.287000
     66 H9          78.5160   -70.7370   -16.0530 h2         1 P3E       0.094700
     67 H10         78.2180   -69.5210   -18.5200 h1         1 P3E       0.045700
     68 H11         76.9070   -67.7130   -17.5550 h1         1 P3E       0.030700
     69 H12         79.2290   -67.4800   -15.5330 h1         1 P3E       0.083700
     70 H13         77.2880   -66.7970   -13.9430 h1         1 P3E       0.088200
     71 H14         78.0450   -65.6030   -14.9890 h1         1 P3E       0.088200
     72 H15         72.6880   -69.4950   -16.3950 h1         1 P3E       0.095200
     73 H16         72.3360   -71.0540   -17.1350 h1         1 P3E       0.095200
     74 H17         71.6190   -70.0980   -21.7180 ha         1 P3E       0.098000
     75 H18         71.9440   -71.2290   -19.5330 ha         1 P3E       0.108000
     76 H19         72.2440   -67.7110   -22.0010 ha         1 P3E       0.108000
     77 H20         73.5140   -67.5480   -17.8790 ha         1 P3E       0.165000
     78 H21         72.7170   -65.3710   -19.4580 hc         1 P3E       0.073033
     79 H22         74.3710   -65.8570   -19.8580 hc         1 P3E       0.073033
     80 H23         73.1730   -65.6590   -21.1430 hc         1 P3E       0.073033
     81 H24         80.3100   -69.6990   -11.8230 hn         1 P3E       0.294500
     82 H25         82.7550   -69.2510   -14.1850 hn         1 P3E       0.481500
     83 H26         82.2050   -70.2230   -12.8850 hn         1 P3E       0.481500
     84 H27         78.3320   -74.7230   -17.5570 hn         1 P3E       0.516500
     85 H28         77.0100   -75.7760   -17.7560 hn         1 P3E       0.516500
     86 H29         75.0040   -74.8870   -18.3680 hn         1 P3E       0.327500
     87 H30         79.9860   -65.8680   -17.3760 ho         1 P3E       0.555000
     88 H31         83.1230   -62.6090   -17.5960 ho         1 P3E       0.480000
     89 H33         80.2670   -68.2550   -17.8970 ho         1 P3E       0.486000
     90 H34         77.8620   -65.9540   -18.0860 ho         1 P3E       0.628000
     91 C21         72.9770   -70.1680   -17.2120 c3         1 P3E       0.120900
     92 O10         73.2050   -73.2350   -18.0900 o          1 P3E      -0.513000
@<TRIPOS>BOND
     1     1    29 1   
     2     1    30 1   
     3     1    31 2   
     4     2     3 2   
     5     2    31 1   
     6     2    33 1   
     7     3     4 1   
     8     3    32 1   
     9     4     5 2   
    10     4    29 1   
    11     6     7 1   
    12     6    33 1   
    13     6    41 1   
    14     6    58 1   
    15     7     8 1   
    16     7    39 1   
    17     7    59 1   
    18     8     9 1   
    19     8    40 1   
    20     8    60 1   
    21     9    10 1   
    22     9    41 1   
    23     9    61 1   
    24    10    42 1   
    25    10    62 1   
    26    10    63 1   
    27    11    32 2   
    28    11    33 1   
    29    11    64 1   
    30    12    34 2   
    31    12    38 1   
    32    12    65 1   
    33    13    35 2   
    34    13    36 1   
    35    13    37 1   
    36    14    15 1   
    37    14    37 1   
    38    14    92 2   
    39    15    16 2   
    40    15    34 1   
    41    16    35 1   
    42    16    38 1   
    43    17    18 1   
    44    17    38 1   
    45    17    46 1   
    46    17    66 1   
    47    18    19 1   
    48    18    47 1   
    49    18    67 1   
    50    19    20 1   
    51    19    48 1   
    52    19    68 1   
    53    20    21 1   
    54    20    46 1   
    55    20    69 1   
    56    21    49 1   
    57    21    70 1   
    58    21    71 1   
    59    22    24 ar  
    60    22    26 ar  
    61    22    91 1   
    62    23    24 ar  
    63    23    25 ar  
    64    23    74 1   
    65    24    75 1   
    66    25    27 ar  
    67    25    76 1   
    68    26    27 ar  
    69    26    77 1   
    70    27    28 1   
    71    28    78 1   
    72    28    79 1   
    73    28    80 1   
    74    29    81 1   
    75    30    82 1   
    76    30    83 1   
    77    34    91 1   
    78    36    84 1   
    79    36    85 1   
    80    37    86 1   
    81    39    87 1   
    82    40    88 1   
    83    42    55 1   
    84    43    55 1   
    85    44    55 1   
    86    45    55 1   
    87    45    57 1   
    88    47    89 1   
    89    48    90 1   
    90    49    56 1   
    91    50    56 1   
    92    51    56 1   
    93    52    56 1   
    94    52    57 1   
    95    53    57 1   
    96    54    57 1   
    97    72    91 1   
    98    73    91 1   
@<TRIPOS>SUBSTRUCTURE
     1 P3E         1 TEMP              0 ****  ****    0 ROOT
