@<TRIPOS>MOLECULE
P3E
   92    98     1     0     0
SMALL
abcg2


@<TRIPOS>ATOM
      1 C1          81.7910   -68.7900   -13.9080 cc         1 P3E       0.682800
      2 C2          80.9260   -66.7660   -13.6890 cd         1 P3E       0.107400
      3 C3          79.9660   -67.1360   -12.7650 cc         1 P3E       0.095500
      4 C4          79.8820   -68.5030   -12.3700 c          1 P3E       0.520500
      5 O1          79.1050   -69.0280   -11.5930 o          1 P3E      -0.548000
      6 C5          81.3950   -64.6130   -14.8840 c5         1 P3E       0.289300
      7 C6          80.5740   -64.4040   -16.1640 c5         1 P3E       0.154300
      8 C7          81.0870   -63.0440   -16.6330 c5         1 P3E       0.122300
      9 C8          81.3610   -62.3260   -15.3030 c5         1 P3E       0.125300
     10 C9          80.2620   -61.4020   -14.8270 c3         1 P3E       0.217600
     11 C10         79.6540   -65.0750   -13.1190 cd         1 P3E       0.455400
     12 C11         75.0900   -69.4910   -16.2140 cc         1 P3E       0.028700
     13 C12         76.8580   -73.3190   -17.3780 cc         1 P3E       0.759800
     14 C13         74.4800   -72.7210   -17.6600 c          1 P3E       0.638600
     15 C14         74.8970   -71.4770   -17.0970 cc         1 P3E      -0.351600
     16 C15         76.2080   -71.3110   -16.7200 cd         1 P3E       0.190400
     17 C16         77.5510   -69.4270   -15.7200 c5         1 P3E       0.256300
     18 C17         78.3200   -68.8460   -16.9280 c5         1 P3E       0.114300
     19 C18         77.6920   -67.4600   -16.9640 c5         1 P3E       0.185300
     20 C19         77.6380   -67.1320   -15.4750 c5         1 P3E       0.080300
     21 C20         76.7490   -65.9830   -15.0630 c3         1 P3E       0.211600
     22 C22         72.7930   -69.4950   -18.5630 ca         1 P3E      -0.154300
     23 C23         72.1850   -69.8530   -20.8570 ca         1 P3E      -0.130000
     24 C24         72.2120   -70.2930   -19.5410 ca         1 P3E      -0.106000
     25 C25         72.7430   -68.6300   -21.1980 ca         1 P3E      -0.107000
     26 C26         73.3340   -68.2620   -18.9120 ca         1 P3E      -0.068000
     27 C27         73.3260   -67.8150   -20.2300 ca         1 P3E      -0.032300
     28 C28         73.9410   -66.4940   -20.5920 c3         1 P3E      -0.073800
     29 N1          80.8610   -69.2630   -13.0260 ns         1 P3E      -0.466400
     30 N2          82.6330   -69.6890   -14.4450 nv         1 P3E      -1.064200
     31 N3          81.8650   -67.5330   -14.2620 nd         1 P3E      -0.647100
     32 N4          79.1850   -66.0640   -12.4190 nc         1 P3E      -0.620000
     33 N5          80.7190   -65.4390   -13.9060 na         1 P3E      -0.165500
     34 N6          74.2260   -70.3180   -16.7630 na         1 P3E       0.040300
     35 N7          77.2130   -72.1710   -16.8370 nd         1 P3E      -0.695100
     36 N8          77.7690   -74.2690   -17.5520 nv         1 P3E      -1.052200
     37 N9          75.5750   -73.5810   -17.7700 ns         1 P3E      -0.454400
     38 N10         76.3000   -70.0580   -16.1710 na         1 P3E       0.022000
     39 O2          80.7570   -65.4490   -17.0590 oh         1 P3E      -0.732000
     40 O3          82.2670   -63.2600   -17.3670 oh         1 P3E      -0.716000
     41 O4          81.6140   -63.3510   -14.3360 os         1 P3E      -0.455000
     42 O5          79.0390   -62.0930   -14.7070 os         1 P3E      -0.593400
     43 O6          77.4440   -60.8580   -16.2840 o          1 P3E      -0.846500
     44 O7          77.6910   -60.1060   -13.8030 o          1 P3E      -0.846500
     45 O8          76.6660   -62.3850   -14.3280 os         1 P3E      -0.720800
     46 O9          77.2240   -68.3700   -14.8820 os         1 P3E      -0.415000
     47 O11         79.6820   -68.7300   -16.6470 oh         1 P3E      -0.652000
     48 O12         78.3390   -66.5130   -17.7480 oh         1 P3E      -0.777000
     49 O13         75.4930   -65.9780   -15.7090 os         1 P3E      -0.624400
     50 O14         73.7380   -65.0560   -17.2280 o          1 P3E      -0.858000
     51 O15         76.2330   -65.0580   -18.0000 o          1 P3E      -0.858000
     52 O16         75.5100   -63.4560   -16.2620 os         1 P3E      -0.718800
     53 O17         74.6070   -63.7410   -13.8610 o          1 P3E      -0.865500
     54 O18         74.3940   -61.4750   -15.1360 o          1 P3E      -0.865500
     55 P1          77.6590   -61.1830   -14.8400 p5         1 P3E       1.462800
     56 P2          75.1880   -64.9080   -16.9140 p5         1 P3E       1.508800
     57 P3          75.1360   -62.7310   -14.8250 p5         1 P3E       1.539800
     58 H1          82.3340   -65.1240   -15.1240 h2         1 P3E       0.083700
     59 H2          79.5220   -64.2780   -15.8860 h1         1 P3E       0.102700
     60 H3          80.3360   -62.5060   -17.2260 h1         1 P3E       0.101700
     61 H4          82.2630   -61.7090   -15.3950 h1         1 P3E       0.028700
     62 H5          80.2030   -60.5790   -15.5500 h1         1 P3E       0.022700
     63 H6          80.5550   -60.9610   -13.8670 h1         1 P3E       0.022700
     64 H7          79.2710   -64.0660   -13.1140 h5         1 P3E       0.127100
     65 H8          74.8500   -68.4980   -15.8660 h5         1 P3E       0.287000
     66 H9          78.1160   -70.2000   -15.1920 h2         1 P3E       0.094700
     67 H10         78.1330   -69.4230   -17.8400 h1         1 P3E       0.045700
     68 H11         76.6670   -67.5920   -17.3340 h1         1 P3E       0.030700
     69 H12         78.6440   -66.8950   -15.1170 h1         1 P3E       0.083700
     70 H13         76.5830   -66.0190   -13.9840 h1         1 P3E       0.088200
     71 H14         77.3130   -65.0650   -15.2500 h1         1 P3E       0.088200
     72 H15         72.5480   -69.1650   -16.4440 h1         1 P3E       0.095200
     73 H16         72.2180   -70.8180   -16.9520 h1         1 P3E       0.095200
     74 H17         71.7290   -70.4690   -21.6220 ha         1 P3E       0.098000
     75 H18         71.7810   -71.2490   -19.2770 ha         1 P3E       0.108000
     76 H19         72.7190   -68.2990   -22.2300 ha         1 P3E       0.108000
     77 H20         73.7530   -67.6190   -18.1440 ha         1 P3E       0.165000
     78 H21         73.6540   -65.7190   -19.8830 hc         1 P3E       0.073033
     79 H22         75.0300   -66.5530   -20.5700 hc         1 P3E       0.073033
     80 H23         73.6470   -66.1770   -21.5910 hc         1 P3E       0.073033
     81 H24         80.8520   -70.2530   -12.8190 hn         1 P3E       0.294500
     82 H25         83.4100   -69.3300   -14.9750 hn         1 P3E       0.481500
     83 H26         82.7730   -70.5880   -14.0130 hn         1 P3E       0.481500
     84 H27         78.7180   -74.0920   -17.2670 hn         1 P3E       0.516500
     85 H28         77.5590   -75.1640   -17.9620 hn         1 P3E       0.516500
     86 H29         75.3630   -74.4880   -18.1730 hn         1 P3E       0.327500
     87 H30         79.8920   -65.8460   -17.2800 ho         1 P3E       0.555000
     88 H31         82.6210   -62.4050   -17.6310 ho         1 P3E       0.480000
     89 H33         80.0830   -69.6050   -16.6530 ho         1 P3E       0.486000
     90 H34         77.6280   -65.8310   -17.9260 ho         1 P3E       0.628000
     91 C21         72.8540   -69.9550   -17.1300 c3         1 P3E       0.120900
     92 O10         73.3700   -73.0630   -18.0090 o          1 P3E      -0.513000
@<TRIPOS>BOND
     1     1    29 1   
     2     1    30 1   
     3     1    31 2   
     4     2     3 2   
     5     2    31 1   
     6     2    33 1   
     7     3     4 1   
     8     3    32 1   
     9     4     5 2   
    10     4    29 1   
    11     6     7 1   
    12     6    33 1   
    13     6    41 1   
    14     6    58 1   
    15     7     8 1   
    16     7    39 1   
    17     7    59 1   
    18     8     9 1   
    19     8    40 1   
    20     8    60 1   
    21     9    10 1   
    22     9    41 1   
    23     9    61 1   
    24    10    42 1   
    25    10    62 1   
    26    10    63 1   
    27    11    32 2   
    28    11    33 1   
    29    11    64 1   
    30    12    34 2   
    31    12    38 1   
    32    12    65 1   
    33    13    35 2   
    34    13    36 1   
    35    13    37 1   
    36    14    15 1   
    37    14    37 1   
    38    14    92 2   
    39    15    16 2   
    40    15    34 1   
    41    16    35 1   
    42    16    38 1   
    43    17    18 1   
    44    17    38 1   
    45    17    46 1   
    46    17    66 1   
    47    18    19 1   
    48    18    47 1   
    49    18    67 1   
    50    19    20 1   
    51    19    48 1   
    52    19    68 1   
    53    20    21 1   
    54    20    46 1   
    55    20    69 1   
    56    21    49 1   
    57    21    70 1   
    58    21    71 1   
    59    22    24 ar  
    60    22    26 ar  
    61    22    91 1   
    62    23    24 ar  
    63    23    25 ar  
    64    23    74 1   
    65    24    75 1   
    66    25    27 ar  
    67    25    76 1   
    68    26    27 ar  
    69    26    77 1   
    70    27    28 1   
    71    28    78 1   
    72    28    79 1   
    73    28    80 1   
    74    29    81 1   
    75    30    82 1   
    76    30    83 1   
    77    34    91 1   
    78    36    84 1   
    79    36    85 1   
    80    37    86 1   
    81    39    87 1   
    82    40    88 1   
    83    42    55 1   
    84    43    55 1   
    85    44    55 1   
    86    45    55 1   
    87    45    57 1   
    88    47    89 1   
    89    48    90 1   
    90    49    56 1   
    91    50    56 1   
    92    51    56 1   
    93    52    56 1   
    94    52    57 1   
    95    53    57 1   
    96    54    57 1   
    97    72    91 1   
    98    73    91 1   
@<TRIPOS>SUBSTRUCTURE
     1 P3E         1 TEMP              0 ****  ****    0 ROOT
