@<TRIPOS>MOLECULE
P3G
   43    42     1     0     0
SMALL
No Charge or Current Charge


@<TRIPOS>ATOM
      1 C5          -1.2200     0.3100    -7.4610 c3         1 P3G      -0.091100
      2 C6          -0.9420    -0.8870    -6.5380 c3         1 P3G       0.161600
      3 O3           0.0350    -0.4730    -5.5710 os         1 P3G      -0.448000
      4 C7           0.4050    -1.4950    -4.6230 c3         1 P3G       0.163600
      5 C8           1.4510    -0.9190    -3.6390 c3         1 P3G       0.161600
      6 O4           0.8010     0.0150    -2.7540 os         1 P3G      -0.433000
      7 C9           1.6770     0.6310    -1.7890 c3         1 P3G       0.161600
      8 C10          0.8530     1.5950    -0.9020 c3         1 P3G       0.162600
      9 O5           0.0160     0.8220    -0.0180 os         1 P3G      -0.433000
     10 C11         -0.8140     1.6090     0.8580 c3         1 P3G       0.162600
     11 C12         -1.6460     0.6600     1.7540 c3         1 P3G       0.161600
     12 O6          -0.7750     0.0450     2.7240 os         1 P3G      -0.433000
     13 C13         -1.4330    -0.8760     3.6170 c3         1 P3G       0.161600
     14 C14         -0.3910    -1.4530     4.6060 c3         1 P3G       0.163600
     15 O7          -0.0130    -0.4260     5.5460 os         1 P3G      -0.448000
     16 C15          0.9600    -0.8390     6.5160 c3         1 P3G       0.161600
     17 C16          1.2480     0.3640     7.4290 c3         1 P3G      -0.091100
     18 H51         -1.9650     0.0390    -8.2190 hc         1 P3G       0.042367
     19 H5          -1.6080     1.1600    -6.8860 hc         1 P3G       0.042367
     20 H52         -0.3040     0.6230    -7.9760 hc         1 P3G       0.042367
     21 H61         -0.5680    -1.7300    -7.1340 h1         1 P3G       0.016700
     22 H62         -1.8730    -1.1930    -6.0440 h1         1 P3G       0.016700
     23 H71          0.8460    -2.3550    -5.1450 h1         1 P3G       0.027200
     24 H72         -0.4700    -1.8490    -4.0630 h1         1 P3G       0.027200
     25 H81          2.2570    -0.4320    -4.2030 h1         1 P3G       0.026200
     26 H82          1.8880    -1.7450    -3.0630 h1         1 P3G       0.026200
     27 H91          2.4610     1.2050    -2.3010 h1         1 P3G       0.027700
     28 H92          2.1630    -0.1240    -1.1580 h1         1 P3G       0.027700
     29 H101         0.2500     2.2560    -1.5380 h1         1 P3G       0.027200
     30 H102         1.5440     2.2190    -0.3200 h1         1 P3G       0.027200
     31 H111        -1.5000     2.2340     0.2710 h1         1 P3G       0.027200
     32 H112        -0.2050     2.2710     1.4900 h1         1 P3G       0.027200
     33 H121        -2.1380    -0.0970     1.1290 h1         1 P3G       0.027700
     34 H122        -2.4250     1.2440     2.2610 h1         1 P3G       0.027700
     35 H131        -1.8760    -1.7040     3.0480 h1         1 P3G       0.026200
     36 H132        -2.2350    -0.3780     4.1770 h1         1 P3G       0.026200
     37 H141         0.4810    -1.8180     4.0490 h1         1 P3G       0.027200
     38 H142        -0.8400    -2.3040     5.1350 h1         1 P3G       0.027200
     39 H151         1.8890    -1.1570     6.0250 h1         1 P3G       0.016700
     40 H152         0.5790    -1.6730     7.1190 h1         1 P3G       0.016700
     41 H16          1.9900     0.0930     8.1890 hc         1 P3G       0.042367
     42 H162         1.6430     1.2050     6.8470 hc         1 P3G       0.042367
     43 H161         0.3350     0.6890     7.9410 hc         1 P3G       0.042367
@<TRIPOS>BOND
     1     1     2 1   
     2     1    18 1   
     3     1    19 1   
     4     1    20 1   
     5     2     3 1   
     6     2    21 1   
     7     2    22 1   
     8     3     4 1   
     9     4     5 1   
    10     4    23 1   
    11     4    24 1   
    12     5     6 1   
    13     5    25 1   
    14     5    26 1   
    15     6     7 1   
    16     7     8 1   
    17     7    27 1   
    18     7    28 1   
    19     8     9 1   
    20     8    29 1   
    21     8    30 1   
    22     9    10 1   
    23    10    11 1   
    24    10    31 1   
    25    10    32 1   
    26    11    12 1   
    27    11    33 1   
    28    11    34 1   
    29    12    13 1   
    30    13    14 1   
    31    13    35 1   
    32    13    36 1   
    33    14    15 1   
    34    14    37 1   
    35    14    38 1   
    36    15    16 1   
    37    16    17 1   
    38    16    39 1   
    39    16    40 1   
    40    17    41 1   
    41    17    42 1   
    42    17    43 1   
@<TRIPOS>SUBSTRUCTURE
     1 P3G         1 TEMP              0 ****  ****    0 ROOT
