@<TRIPOS>MOLECULE
P3G
   43    42     1     0     0
SMALL
bcc


@<TRIPOS>ATOM
      1 C5          -1.5720    -0.4590    -6.7790 c3         1 P3G      -0.091100
      2 C6          -0.7600    -1.3810    -5.8960 c3         1 P3G       0.138400
      3 O3           0.0790    -0.6120    -5.0660 os         1 P3G      -0.401600
      4 C7           0.8490    -1.3970    -4.1940 c3         1 P3G       0.140400
      5 C8           1.7400    -0.5160    -3.3570 c3         1 P3G       0.138400
      6 O4           0.9580     0.3060    -2.5280 os         1 P3G      -0.386600
      7 C9           1.7340     1.1060    -1.6740 c3         1 P3G       0.138400
      8 C10          0.8400     2.0060    -0.8600 c3         1 P3G       0.139400
      9 O5           0.0210     1.2350    -0.0200 os         1 P3G      -0.386600
     10 C11         -0.7910     2.0210     0.8130 c3         1 P3G       0.139400
     11 C12         -1.6950     1.1370     1.6330 c3         1 P3G       0.138400
     12 O6          -0.9270     0.3380     2.4960 os         1 P3G      -0.386600
     13 C13         -1.7170    -0.4710     3.3290 c3         1 P3G       0.138400
     14 C14         -0.8350    -1.3530     4.1750 c3         1 P3G       0.140400
     15 O7          -0.0630    -0.5670     5.0450 os         1 P3G      -0.401600
     16 C15          0.7720    -1.3360     5.8790 c3         1 P3G       0.138400
     17 C16          1.5860    -0.4140     6.7590 c3         1 P3G      -0.091100
     18 H51         -2.2180    -1.0470    -7.4300 hc         1 P3G       0.042367
     19 H5          -2.2060     0.2020    -6.1870 hc         1 P3G       0.042367
     20 H52         -0.9290     0.1540    -7.4110 hc         1 P3G       0.042367
     21 H61         -0.1650    -2.0670    -6.5150 h1         1 P3G       0.016700
     22 H62         -1.4300    -2.0070    -5.2900 h1         1 P3G       0.016700
     23 H71          1.4900    -2.0970    -4.7490 h1         1 P3G       0.027200
     24 H72          0.2060    -2.0060    -3.5410 h1         1 P3G       0.027200
     25 H81          2.3910     0.0870    -4.0070 h1         1 P3G       0.026200
     26 H82          2.3980    -1.1660    -2.7640 h1         1 P3G       0.026200
     27 H91          2.4250     1.7430    -2.2450 h1         1 P3G       0.027700
     28 H92          2.3510     0.4870    -1.0070 h1         1 P3G       0.027700
     29 H101         0.2360     2.6380    -1.5270 h1         1 P3G       0.027200
     30 H102         1.4820     2.6820    -0.2780 h1         1 P3G       0.027200
     31 H111        -1.4260     2.6980     0.2240 h1         1 P3G       0.027200
     32 H112        -0.1820     2.6540     1.4740 h1         1 P3G       0.027200
     33 H121        -2.3160     0.5160     0.9710 h1         1 P3G       0.027700
     34 H122        -2.3810     1.7840     2.1970 h1         1 P3G       0.027700
     35 H131        -2.3790    -1.1210     2.7390 h1         1 P3G       0.026200
     36 H132        -2.3650     0.1410     3.9730 h1         1 P3G       0.026200
     37 H141        -0.1950    -1.9710     3.5290 h1         1 P3G       0.027200
     38 H142        -1.4830    -2.0440     4.7330 h1         1 P3G       0.027200
     39 H151         1.4410    -1.9670     5.2760 h1         1 P3G       0.016700
     40 H152         0.1730    -2.0180     6.4990 h1         1 P3G       0.016700
     41 H16          2.2300    -1.0020     7.4130 hc         1 P3G       0.042367
     42 H162         2.2220     0.2440     6.1670 hc         1 P3G       0.042367
     43 H161         0.9440     0.2030     7.3890 hc         1 P3G       0.042367
@<TRIPOS>BOND
     1     1     2 1   
     2     1    18 1   
     3     1    19 1   
     4     1    20 1   
     5     2     3 1   
     6     2    21 1   
     7     2    22 1   
     8     3     4 1   
     9     4     5 1   
    10     4    23 1   
    11     4    24 1   
    12     5     6 1   
    13     5    25 1   
    14     5    26 1   
    15     6     7 1   
    16     7     8 1   
    17     7    27 1   
    18     7    28 1   
    19     8     9 1   
    20     8    29 1   
    21     8    30 1   
    22     9    10 1   
    23    10    11 1   
    24    10    31 1   
    25    10    32 1   
    26    11    12 1   
    27    11    33 1   
    28    11    34 1   
    29    12    13 1   
    30    13    14 1   
    31    13    35 1   
    32    13    36 1   
    33    14    15 1   
    34    14    37 1   
    35    14    38 1   
    36    15    16 1   
    37    16    17 1   
    38    16    39 1   
    39    16    40 1   
    40    17    41 1   
    41    17    42 1   
    42    17    43 1   
@<TRIPOS>SUBSTRUCTURE
     1 P3G         1 TEMP              0 ****  ****    0 ROOT
