@<TRIPOS>MOLECULE
P3I
   45    47     1     0     0
SMALL
abcg2


@<TRIPOS>ATOM
      1 BR          -4.6060    -2.1210    -0.2460 br         1 P3I      -0.091100
      2 CAY         -4.2820    -0.2710    -0.0100 ca         1 P3I      -0.016900
      3 CAZ         -5.3380     0.5230     0.4120 ca         1 P3I      -0.079000
      4 CBA         -5.1420     1.8860     0.5790 ca         1 P3I      -0.102000
      5 CAX         -3.8990     2.4390     0.3210 ca         1 P3I      -0.092000
      6 CAW         -2.8530     1.6310    -0.0990 ca         1 P3I      -0.103000
      7 CAV         -3.0180     0.2590    -0.2690 ca         1 P3I      -0.094300
      8 CAU         -1.8850    -0.6260    -0.7350 c3         1 P3I       0.129300
      9 NAQ         -0.5970     0.0450    -0.7750 n          1 P3I      -0.336000
     10 CAR          0.1550     0.1880     0.3690 cc         1 P3I       0.411600
     11 NAS         -0.3720    -0.2340     1.5170 nv         1 P3I      -0.943000
     12 CAP         -0.1620     0.5230    -2.0050 c          1 P3I       0.627000
     13 OAO         -0.8450     0.4370    -3.0030 o          1 P3I      -0.545000
     14 NAG          1.0730     1.0880    -2.0060 ns         1 P3I      -0.466500
     15 CAH          1.9330     1.2510    -0.9230 c          1 P3I       0.604200
     16 OAA          3.0000     1.8200    -1.0810 o          1 P3I      -0.541000
     17 CAI          1.4260     0.7340     0.3060 cd         1 P3I      -0.266200
     18 NAJ          2.1470     0.8960     1.5090 nh         1 P3I      -0.576300
     19 CAB          2.4750     2.2510     1.9540 c3         1 P3I       0.191100
     20 SAK          3.2130    -0.3310     1.8870 sy         1 P3I       1.152600
     21 OAT          3.7760    -0.0030     3.1870 o          1 P3I      -0.546000
     22 OAC          2.4890    -1.5780     1.7100 o          1 P3I      -0.546000
     23 CAL          4.5050    -0.2760     0.6840 ca         1 P3I      -0.281500
     24 CAM          5.5660     0.6020     0.8690 ca         1 P3I      -0.007500
     25 CAN          6.5460     0.6840    -0.1070 ca         1 P3I      -0.127500
     26 CAF          6.4630    -0.1050    -1.2470 ca         1 P3I      -0.052000
     27 CAE          5.4030    -0.9860    -1.4130 ca         1 P3I      -0.127500
     28 CAD          4.4150    -1.0780    -0.4450 ca         1 P3I      -0.007500
     29 HAZ         -6.3090     0.0880     0.6090 ha         1 P3I       0.135000
     30 HBA         -5.9650     2.5060     0.9090 ha         1 P3I       0.124000
     31 HAX         -3.7370     3.5010     0.4440 ha         1 P3I       0.123000
     32 HAW         -1.8930     2.0890    -0.2960 ha         1 P3I       0.121000
     33 HAU1        -1.7900    -1.5130    -0.1070 h1         1 P3I       0.096700
     34 HAU2        -2.0950    -0.9980    -1.7370 h1         1 P3I       0.096700
     35 HAS1        -1.3580    -0.3880     1.6390 hn         1 P3I       0.511000
     36 HAS2         0.1520    -0.0630     2.3600 hn         1 P3I       0.511000
     37 HAG          1.3880     1.4510    -2.8960 hn         1 P3I       0.348500
     38 HAB1         2.6680     2.2620     3.0230 h1         1 P3I       0.053367
     39 HAB2         3.3290     2.6770     1.4260 h1         1 P3I       0.053367
     40 HAB3         1.6040     2.8740     1.7650 h1         1 P3I       0.053367
     41 HAM          5.6360     1.2110     1.7600 ha         1 P3I       0.130500
     42 HAD          3.5940    -1.7690    -0.5740 ha         1 P3I       0.130500
     43 HAN          7.3780     1.3630     0.0260 ha         1 P3I       0.115500
     44 HAF          7.2310    -0.0360    -2.0060 ha         1 P3I       0.113000
     45 HAE          5.3460    -1.6080    -2.2970 ha         1 P3I       0.115500
@<TRIPOS>BOND
     1     1     2 1   
     2     2     3 ar  
     3     2     7 ar  
     4     3     4 ar  
     5     3    29 1   
     6     4     5 ar  
     7     4    30 1   
     8     5     6 ar  
     9     5    31 1   
    10     6     7 ar  
    11     6    32 1   
    12     7     8 1   
    13     8     9 1   
    14     8    33 1   
    15     8    34 1   
    16     9    10 1   
    17     9    12 1   
    18    10    11 1   
    19    10    17 2   
    20    11    35 1   
    21    11    36 1   
    22    12    13 2   
    23    12    14 1   
    24    14    15 1   
    25    14    37 1   
    26    15    16 2   
    27    15    17 1   
    28    17    18 1   
    29    18    19 1   
    30    18    20 1   
    31    19    38 1   
    32    19    39 1   
    33    19    40 1   
    34    20    21 2   
    35    20    22 2   
    36    20    23 1   
    37    23    24 ar  
    38    23    28 ar  
    39    24    25 ar  
    40    24    41 1   
    41    25    26 ar  
    42    25    43 1   
    43    26    27 ar  
    44    26    44 1   
    45    27    28 ar  
    46    27    45 1   
    47    28    42 1   
@<TRIPOS>SUBSTRUCTURE
     1 P3I         1 TEMP              0 ****  ****    0 ROOT
