@<TRIPOS>MOLECULE
P3I
   45    47     1     0     0
SMALL
No Charge or Current Charge


@<TRIPOS>ATOM
      1 Br          -2.3370    -2.5790     0.3530 br         1 P3I      -0.091100
      2 CAY         -3.0090    -0.8140     0.0000 ca         1 P3I      -0.016900
      3 CAZ         -4.2650    -0.4780     0.5360 ca         1 P3I      -0.079000
      4 CBA         -4.8150     0.7940     0.3120 ca         1 P3I      -0.102000
      5 CAX         -4.1100     1.7350    -0.4530 ca         1 P3I      -0.092000
      6 CAW         -2.8550     1.4050    -0.9910 ca         1 P3I      -0.103000
      7 CAV         -2.2860     0.1320    -0.7690 ca         1 P3I      -0.094300
      8 CAU         -0.9120    -0.1730    -1.3760 c3         1 P3I       0.129300
      9 NAQ          0.1500     0.7990    -0.9770 n          1 P3I      -0.336000
     10 CAR          0.7180     0.7900     0.2930 cc         1 P3I       0.411600
     11 NAS          0.1910    -0.0770     1.1910 nv         1 P3I      -0.943000
     12 CAP          0.6020     1.7110    -1.9440 c          1 P3I       0.627000
     13 OAO          0.1440     1.7850    -3.0720 o          1 P3I      -0.545000
     14 NAG          1.6000     2.5400    -1.5680 ns         1 P3I      -0.466500
     15 CAH          2.2400     2.6050    -0.3790 c          1 P3I       0.604200
     16 OAA          3.1450     3.4060    -0.2030 o          1 P3I      -0.541000
     17 CAI          1.7520     1.6390     0.6430 cd         1 P3I      -0.266200
     18 NAJ          2.3460     1.5680     1.9450 nh         1 P3I      -0.576300
     19 CAB          2.4110     2.7730     2.7930 c3         1 P3I       0.191100
     20 SAK          3.3140     0.2480     2.4820 sy         1 P3I       1.152600
     21 OAT          4.5130     0.8140     3.1150 o          1 P3I      -0.546000
     22 OAC          2.4190    -0.6640     3.2050 o          1 P3I      -0.546000
     23 CAL          3.7770    -0.4810     0.8970 ca         1 P3I      -0.281500
     24 CAM          4.7860     0.1240     0.1200 ca         1 P3I      -0.007500
     25 CAN          5.1260    -0.4140    -1.1330 ca         1 P3I      -0.127500
     26 CAF          4.4620    -1.5550    -1.6150 ca         1 P3I      -0.052000
     27 CAE          3.4550    -2.1590    -0.8430 ca         1 P3I      -0.127500
     28 CAD          3.1110    -1.6250     0.4110 ca         1 P3I      -0.007500
     29 HAZ         -4.8160    -1.2060     1.1270 ha         1 P3I       0.135000
     30 HBA         -5.7880     1.0490     0.7290 ha         1 P3I       0.124000
     31 HAX         -4.5350     2.7210    -0.6310 ha         1 P3I       0.123000
     32 HAW         -2.3220     2.1450    -1.5840 ha         1 P3I       0.121000
     33 HAU1        -0.5670    -1.1770    -1.1060 h1         1 P3I       0.096700
     34 HAU2        -1.0240    -0.1990    -2.4670 h1         1 P3I       0.096700
     35 HAS1        -0.7910    -0.3080     1.1070 hn         1 P3I       0.511000
     36 HAS2         0.5550    -0.0030     2.1360 hn         1 P3I       0.511000
     37 HAG          1.9160     3.1880    -2.2700 hn         1 P3I       0.348500
     38 HAB1         2.2850     2.5130     3.8520 h1         1 P3I       0.053367
     39 HAB2         3.3770     3.2800     2.6680 h1         1 P3I       0.053367
     40 HAB3         1.6150     3.4770     2.5180 h1         1 P3I       0.053367
     41 HAM          5.2970     1.0170     0.4770 ha         1 P3I       0.130500
     42 HAD          2.3220    -2.0980     0.9940 ha         1 P3I       0.130500
     43 HAN          5.9020     0.0560    -1.7320 ha         1 P3I       0.115500
     44 HAF          4.7260    -1.9690    -2.5860 ha         1 P3I       0.113000
     45 HAE          2.9390    -3.0390    -1.2170 ha         1 P3I       0.115500
@<TRIPOS>BOND
     1     1     2 1   
     2     2     3 ar  
     3     2     7 ar  
     4     3     4 ar  
     5     3    29 1   
     6     4     5 ar  
     7     4    30 1   
     8     5     6 ar  
     9     5    31 1   
    10     6     7 ar  
    11     6    32 1   
    12     7     8 1   
    13     8     9 1   
    14     8    33 1   
    15     8    34 1   
    16     9    10 1   
    17     9    12 1   
    18    10    11 1   
    19    10    17 2   
    20    11    35 1   
    21    11    36 1   
    22    12    13 2   
    23    12    14 1   
    24    14    15 1   
    25    14    37 1   
    26    15    16 2   
    27    15    17 1   
    28    17    18 1   
    29    18    19 1   
    30    18    20 1   
    31    19    38 1   
    32    19    39 1   
    33    19    40 1   
    34    20    21 2   
    35    20    22 2   
    36    20    23 1   
    37    23    24 ar  
    38    23    28 ar  
    39    24    25 ar  
    40    24    41 1   
    41    25    26 ar  
    42    25    43 1   
    43    26    27 ar  
    44    26    44 1   
    45    27    28 ar  
    46    27    45 1   
    47    28    42 1   
@<TRIPOS>SUBSTRUCTURE
     1 P3I         1 TEMP              0 ****  ****    0 ROOT
