@<TRIPOS>MOLECULE
P3J
   20    21     1     0     0
SMALL
No Charge or Current Charge


@<TRIPOS>ATOM
      1 C0           2.7270     0.3350     0.0010 cc         1 P3J       0.210000
      2 C1           1.4920     0.8850     0.0040 cd         1 P3J      -0.278000
      3 N1           3.9610     0.9110    -0.0070 nv         1 P3J      -1.051000
      4 N2           2.5020    -1.0330     0.0050 na         1 P3J      -0.032200
      5 C3          -1.5280     1.2130     0.0170 ca         1 P3J       0.348900
      6 C4          -0.9140    -0.0570     0.0170 ca         1 P3J      -0.165500
      7 C5           0.5550    -0.1780     0.0110 cd         1 P3J       0.335500
      8 N6          -2.8700     1.3970     0.0230 nb         1 P3J      -0.671000
      9 C7          -3.6590     0.2990     0.0280 ca         1 P3J       0.335900
     10 C8          -3.1430    -1.0060     0.0280 ca         1 P3J      -0.170000
     11 C9          -1.7520    -1.1940     0.0230 ca         1 P3J      -0.051000
     12 N            1.1510    -1.3630     0.0120 nc         1 P3J      -0.524800
     13 H1           1.2740     1.9450     0.0010 ha         1 P3J       0.147000
     14 H11N         4.0520     1.9220     0.0910 hn         1 P3J       0.452000
     15 H12N         4.8050     0.3490     0.1110 hn         1 P3J       0.452000
     16 H2           3.2230    -1.7480     0.0010 hn         1 P3J       0.370000
     17 H9          -1.3400    -2.2020     0.0230 ha         1 P3J       0.134000
     18 H7          -4.7340     0.4720     0.0320 h4         1 P3J       0.017100
     19 H8          -3.8180    -1.8570     0.0330 ha         1 P3J       0.123000
     20 H3          -0.9360     2.1260     0.0130 h4         1 P3J       0.018100
@<TRIPOS>BOND
     1     1     2 2   
     2     1     3 1   
     3     1     4 1   
     4     2     7 1   
     5     2    13 1   
     6     3    14 1   
     7     3    15 1   
     8     4    12 1   
     9     4    16 1   
    10     5     6 ar  
    11     5     8 ar  
    12     5    20 1   
    13     6     7 1   
    14     6    11 ar  
    15     7    12 2   
    16     8     9 ar  
    17     9    10 ar  
    18     9    18 1   
    19    10    11 ar  
    20    10    19 1   
    21    11    17 1   
@<TRIPOS>SUBSTRUCTURE
     1 P3J         1 TEMP              0 ****  ****    0 ROOT
