@<TRIPOS>MOLECULE
P3J
   20    21     1     0     0
SMALL
bcc


@<TRIPOS>ATOM
      1 C0           2.7160     0.3230    -0.0380 cc         1 P3J       0.122300
      2 C1           1.4850     0.9530    -0.0200 cd         1 P3J      -0.361300
      3 N1           3.9890     0.8250    -0.1200 nv         1 P3J      -0.802200
      4 N2           2.4550    -0.9980    -0.0420 na         1 P3J      -0.032600
      5 C3          -1.5650     1.2140    -0.0010 ca         1 P3J       0.414200
      6 C4          -0.9120    -0.0170     0.0080 ca         1 P3J      -0.230800
      7 C5           0.5490    -0.1030    -0.0130 cd         1 P3J       0.400800
      8 N6          -2.8830     1.3570     0.0160 nb         1 P3J      -0.671000
      9 C7          -3.6300     0.2600     0.0430 ca         1 P3J       0.401200
     10 C8          -3.0890    -1.0180     0.0530 ca         1 P3J      -0.253300
     11 C9          -1.7130    -1.1580     0.0350 ca         1 P3J      -0.069000
     12 N            1.1480    -1.2790    -0.0230 nc         1 P3J      -0.524800
     13 H1           1.3100     2.0160    -0.0060 ha         1 P3J       0.165000
     14 H11N         4.0580     1.7960     0.1410 hn         1 P3J       0.396800
     15 H12N         4.6990     0.2790     0.3450 hn         1 P3J       0.396800
     16 H2           3.1270    -1.7480    -0.0620 hn         1 P3J       0.319700
     17 H9          -1.2630    -2.1420     0.0420 ha         1 P3J       0.152000
     18 H7          -4.7050     0.4020     0.0560 h4         1 P3J       0.017100
     19 H8          -3.7380    -1.8830     0.0760 ha         1 P3J       0.141000
     20 H3          -0.9900     2.1350    -0.0240 h4         1 P3J       0.018100
@<TRIPOS>BOND
     1     1     2 2   
     2     1     3 1   
     3     1     4 1   
     4     2     7 1   
     5     2    13 1   
     6     3    14 1   
     7     3    15 1   
     8     4    12 1   
     9     4    16 1   
    10     5     6 ar  
    11     5     8 ar  
    12     5    20 1   
    13     6     7 1   
    14     6    11 ar  
    15     7    12 2   
    16     8     9 ar  
    17     9    10 ar  
    18     9    18 1   
    19    10    11 ar  
    20    10    19 1   
    21    11    17 1   
@<TRIPOS>SUBSTRUCTURE
     1 P3J         1 TEMP              0 ****  ****    0 ROOT
