@<TRIPOS>MOLECULE
P3K
   15    15     1     0     0
SMALL
abcg2


@<TRIPOS>ATOM
      1 C4         -38.3190     6.4980     7.5000 ca         1 P3K      -0.112000
      2 C5         -38.2450     5.4500     6.5830 ca         1 P3K      -0.156000
      3 C6         -37.4490     5.5380     5.4560 ca         1 P3K       0.104100
      4 C7         -36.6980     6.7030     5.2260 ca         1 P3K       0.160100
      5 N1         -35.4120     9.8800     5.7010 n1         1 P3K      -0.451000
      6 C3         -37.5930     7.6480     7.2910 ca         1 P3K      -0.068000
      7 C2         -36.7830     7.7460     6.1510 ca         1 P3K      -0.092000
      8 O1         -37.3370     4.5650     4.5360 oh         1 P3K      -0.510100
      9 O2         -35.9480     6.7310     4.1200 oh         1 P3K      -0.505100
     10 H1         -38.9490     6.4020     8.3730 ha         1 P3K       0.123000
     11 H2         -38.8210     4.5480     6.7550 ha         1 P3K       0.119000
     12 H3         -37.6380     8.4740     7.9870 ha         1 P3K       0.129000
     13 H4         -37.8820     3.8090     4.7820 ho         1 P3K       0.464000
     14 H5         -35.4450     7.5500     4.0390 ho         1 P3K       0.477000
     15 C1         -36.0290     8.9290     5.9150 cg         1 P3K       0.317000
@<TRIPOS>BOND
     1     1     2 ar  
     2     1     6 ar  
     3     1    10 1   
     4     2     3 ar  
     5     2    11 1   
     6     3     4 ar  
     7     3     8 1   
     8     4     7 ar  
     9     4     9 1   
    10     5    15 3   
    11     6     7 ar  
    12     6    12 1   
    13     7    15 1   
    14     8    13 1   
    15     9    14 1   
@<TRIPOS>SUBSTRUCTURE
     1 P3K         1 TEMP              0 ****  ****    0 ROOT
