@<TRIPOS>MOLECULE
P3K
   15    15     1     0     0
SMALL
No Charge or Current Charge


@<TRIPOS>ATOM
      1 C4         -38.3210     6.4800     7.4840 ca         1 P3K      -0.112000
      2 C5         -38.2540     5.4160     6.5710 ca         1 P3K      -0.156000
      3 C6         -37.4400     5.5160     5.4290 ca         1 P3K       0.104100
      4 C7         -36.6820     6.6940     5.1940 ca         1 P3K       0.160100
      5 N1         -35.3930     9.9530     5.7540 n1         1 P3K      -0.451000
      6 C3         -37.5750     7.6490     7.2610 ca         1 P3K      -0.068000
      7 C2         -36.7550     7.7640     6.1200 ca         1 P3K      -0.092000
      8 O1         -37.3930     4.4610     4.5530 oh         1 P3K      -0.510100
      9 O2         -35.8880     6.7810     4.0730 oh         1 P3K      -0.505100
     10 H1         -38.9520     6.4000     8.3680 ha         1 P3K       0.123000
     11 H2         -38.8370     4.5170     6.7570 ha         1 P3K       0.119000
     12 H3         -37.6370     8.4660     7.9780 ha         1 P3K       0.129000
     13 H4         -37.9790     3.7480     4.8860 ho         1 P3K       0.464000
     14 H5         -35.4370     7.6510     4.0630 ho         1 P3K       0.477000
     15 C1         -36.0070     8.9760     5.9260 cg         1 P3K       0.317000
@<TRIPOS>BOND
     1     1     2 ar  
     2     1     6 ar  
     3     1    10 1   
     4     2     3 ar  
     5     2    11 1   
     6     3     4 ar  
     7     3     8 1   
     8     4     7 ar  
     9     4     9 1   
    10     5    15 3   
    11     6     7 ar  
    12     6    12 1   
    13     7    15 1   
    14     8    13 1   
    15     9    14 1   
@<TRIPOS>SUBSTRUCTURE
     1 P3K         1 TEMP              0 ****  ****    0 ROOT
