@<TRIPOS>MOLECULE
P3L
   38    40     1     0     0
SMALL
No Charge or Current Charge


@<TRIPOS>ATOM
      1 N1           5.3350     1.1510    17.9880 ns         1 P3L      -0.514900
      2 C4          10.1270     1.3850    24.6970 c6         1 P3L       0.158600
      3 C5           9.3110     0.1610    24.2320 c6         1 P3L      -0.101400
      4 C6           9.7620    -0.2510    22.8100 c6         1 P3L      -0.082400
      5 C7           9.0970     0.6300    21.7230 c          1 P3L       0.600100
      6 C8           7.0630     0.8290    20.2320 c6         1 P3L       0.111700
      7 C10          4.7140     1.1440    19.3200 c6         1 P3L       0.119000
      8 C13         11.2920    -0.2660    22.6860 ca         1 P3L      -0.146300
      9 C11          6.6260     0.7830    17.6850 c          1 P3L       0.566000
     10 C9           5.5800     0.4400    20.3840 c6         1 P3L      -0.108400
     11 C12          7.5530     0.3810    18.8380 c6         1 P3L      -0.176400
     12 N            7.8660     0.1940    21.2830 ns         1 P3L      -0.507900
     13 O1           9.6410     1.6140    21.2430 o          1 P3L      -0.592100
     14 O           11.5400     1.0840    24.7030 os         1 P3L      -0.346100
     15 C14         11.9060    -0.9580    21.6230 ca         1 P3L      -0.061000
     16 C           13.3060    -0.9840    21.5110 ca         1 P3L       0.089000
     17 Cl          14.0640    -1.8500    20.1810 cl         1 P3L      -0.211000
     18 C3          12.0970     0.4080    23.6360 ca         1 P3L       0.163100
     19 C2          13.4970     0.3680    23.5250 ca         1 P3L      -0.135000
     20 C1          14.1030    -0.3240    22.4620 ca         1 P3L      -0.062000
     21 H1           4.7660     1.4340    17.1980 hn         1 P3L       0.319500
     22 H3           9.8210     1.6900    25.7080 h1         1 P3L       0.071200
     23 H4           8.2350     0.3840    24.2560 hc         1 P3L       0.061200
     24 H5           9.4770    -0.6680    24.9340 hc         1 P3L       0.061200
     25 H6           9.3550    -1.2640    22.6780 hc         1 P3L       0.061700
     26 H7           7.1580     1.9230    20.3210 h1         1 P3L       0.094700
     27 H8           4.5540     2.1900    19.6190 h1         1 P3L       0.046200
     28 H9           3.7280     0.6620    19.2580 h1         1 P3L       0.046200
     29 H10          5.2140     0.7010    21.3870 hc         1 P3L       0.057200
     30 H11          5.4680    -0.6490    20.2830 hc         1 P3L       0.057200
     31 H12          7.5800    -0.7160    18.8210 hc         1 P3L       0.078700
     32 H13          8.5760     0.7100    18.6170 hc         1 P3L       0.078700
     33 H14          7.4980    -0.6380    21.7280 hn         1 P3L       0.310500
     34 H15         11.2990    -1.4780    20.8840 ha         1 P3L       0.123000
     35 H16         14.1110     0.8760    24.2640 ha         1 P3L       0.134000
     36 H17         15.1870    -0.3510    22.3740 ha         1 P3L       0.133000
     37 O2           7.0240     0.8350    16.5330 o          1 P3L      -0.569000
     38 H2           9.9480     2.2330    24.0210 h1         1 P3L       0.071200
@<TRIPOS>BOND
     1     1     7 1   
     2     1     9 1   
     3     1    21 1   
     4     2     3 1   
     5     2    14 1   
     6     2    22 1   
     7     2    38 1   
     8     3     4 1   
     9     3    23 1   
    10     3    24 1   
    11     4     5 1   
    12     4     8 1   
    13     4    25 1   
    14     5    12 1   
    15     5    13 2   
    16     6    10 1   
    17     6    11 1   
    18     6    12 1   
    19     6    26 1   
    20     7    10 1   
    21     7    27 1   
    22     7    28 1   
    23     8    15 ar  
    24     8    18 ar  
    25     9    11 1   
    26     9    37 2   
    27    10    29 1   
    28    10    30 1   
    29    11    31 1   
    30    11    32 1   
    31    12    33 1   
    32    14    18 1   
    33    15    16 ar  
    34    15    34 1   
    35    16    17 1   
    36    16    20 ar  
    37    18    19 ar  
    38    19    20 ar  
    39    19    35 1   
    40    20    36 1   
@<TRIPOS>SUBSTRUCTURE
     1 P3L         1 TEMP              0 ****  ****    0 ROOT
