@<TRIPOS>MOLECULE
P3L
   38    40     1     0     0
SMALL
abcg2


@<TRIPOS>ATOM
      1 N1           5.3320     1.0890    18.0540 ns         1 P3L      -0.514900
      2 C4          10.0610     1.3130    24.7310 c6         1 P3L       0.158600
      3 C5           9.2920     0.0950    24.2640 c6         1 P3L      -0.101400
      4 C6           9.7040    -0.2950    22.8340 c6         1 P3L      -0.082400
      5 C7           9.0230     0.6170    21.8110 c          1 P3L       0.600100
      6 C8           7.2150     0.7110    20.1200 c6         1 P3L       0.111700
      7 C10          4.9270     1.3960    19.4250 c6         1 P3L       0.119000
      8 C13         11.2060    -0.2390    22.6930 ca         1 P3L      -0.146300
      9 C11          6.5130     0.5840    17.6530 c          1 P3L       0.566000
     10 C9           5.7290     0.5940    20.4360 c6         1 P3L      -0.108400
     11 C12          7.4890     0.1430    18.7270 c6         1 P3L      -0.176400
     12 N            8.0290     0.0330    21.1150 ns         1 P3L      -0.507900
     13 O1           9.3500     1.7960    21.6680 o          1 P3L      -0.592100
     14 O           11.4830     1.0780    24.7160 os         1 P3L      -0.346100
     15 C14         11.8350    -0.8830    21.6280 ca         1 P3L      -0.061000
     16 C           13.2120    -0.8530    21.5030 ca         1 P3L       0.089000
     17 CL          13.9780    -1.6690    20.1520 cl         1 P3L      -0.211000
     18 C3          11.9940     0.4380    23.6300 ca         1 P3L       0.163100
     19 C2          13.3850     0.4540    23.4980 ca         1 P3L      -0.135000
     20 C1          14.0000    -0.1900    22.4380 ca         1 P3L      -0.062000
     21 H1           4.7130     1.3810    17.3110 hn         1 P3L       0.319500
     22 H3           9.8250     1.5620    25.7640 h1         1 P3L       0.071200
     23 H4           8.2210     0.2980    24.3160 hc         1 P3L       0.061200
     24 H5           9.5020    -0.7440    24.9310 hc         1 P3L       0.061200
     25 H6           9.3800    -1.3200    22.6480 hc         1 P3L       0.061700
     26 H7           7.5060     1.7610    20.1520 h1         1 P3L       0.094700
     27 H8           5.0610     2.4660    19.6130 h1         1 P3L       0.046200
     28 H9           3.8640     1.1750    19.5200 h1         1 P3L       0.046200
     29 H10          5.5230     0.9730    21.4370 hc         1 P3L       0.057200
     30 H11          5.4330    -0.4590    20.4060 hc         1 P3L       0.057200
     31 H12          7.4330    -0.9500    18.7650 hc         1 P3L       0.078700
     32 H13          8.4930     0.3980    18.3870 hc         1 P3L       0.078700
     33 H14          7.8440    -0.9450    21.2770 hn         1 P3L       0.310500
     34 H15         11.2340    -1.4130    20.8990 ha         1 P3L       0.123000
     35 H16         13.9750     0.9780    24.2380 ha         1 P3L       0.134000
     36 H17         15.0760    -0.1730    22.3360 ha         1 P3L       0.133000
     37 O2           6.7880     0.4420    16.4580 o          1 P3L      -0.569000
     38 H2           9.8490     2.1730    24.0940 h1         1 P3L       0.071200
@<TRIPOS>BOND
     1     1     7 1   
     2     1     9 1   
     3     1    21 1   
     4     2     3 1   
     5     2    14 1   
     6     2    22 1   
     7     2    38 1   
     8     3     4 1   
     9     3    23 1   
    10     3    24 1   
    11     4     5 1   
    12     4     8 1   
    13     4    25 1   
    14     5    12 1   
    15     5    13 2   
    16     6    10 1   
    17     6    11 1   
    18     6    12 1   
    19     6    26 1   
    20     7    10 1   
    21     7    27 1   
    22     7    28 1   
    23     8    15 ar  
    24     8    18 ar  
    25     9    11 1   
    26     9    37 2   
    27    10    29 1   
    28    10    30 1   
    29    11    31 1   
    30    11    32 1   
    31    12    33 1   
    32    14    18 1   
    33    15    16 ar  
    34    15    34 1   
    35    16    17 1   
    36    16    20 ar  
    37    18    19 ar  
    38    19    20 ar  
    39    19    35 1   
    40    20    36 1   
@<TRIPOS>SUBSTRUCTURE
     1 P3L         1 TEMP              0 ****  ****    0 ROOT
