@<TRIPOS>MOLECULE
P3N
   81    84     1     0     0
SMALL
abcg2


@<TRIPOS>ATOM
      1 C32         -6.0120    -1.9540     0.2330 cc         1 P3N      -0.201000
      2 C28         -6.6610    -2.3820     1.3430 cd         1 P3N       0.171300
      3 C35         -7.9610    -3.0520     1.5620 c3         1 P3N      -0.135400
      4 O29         -5.9080    -2.1050     2.4190 os         1 P3N      -0.060700
      5 N30         -4.7630    -1.4970     2.0420 nd         1 P3N      -0.347300
      6 C31         -4.8160    -1.4040     0.7440 cc         1 P3N       0.224500
      7 C33         -3.7240    -0.7720    -0.0440 c          1 P3N       0.533600
      8 O34         -3.8490    -0.6190    -1.2470 o          1 P3N      -0.587100
      9 C5          -0.2590    -0.0890     0.8400 c          1 P3N       0.596100
     10 C41         -6.6050     4.0300     0.2870 c3         1 P3N      -0.084100
     11 C42         -7.0270     1.6190    -0.2650 c3         1 P3N      -0.084100
     12 C43         -7.0570     3.3490    -2.0820 c3         1 P3N      -0.084100
     13 C37         -4.9380     2.7040    -0.9420 cc         1 P3N       0.562300
     14 N36         -4.1140     2.3840     0.1020 nc         1 P3N      -0.719000
     15 N38         -4.3210     2.7680    -2.0800 nd         1 P3N      -0.363300
     16 O39         -3.0180     2.4690    -1.7740 os         1 P3N      -0.083700
     17 C1          -2.9670     2.2450    -0.4700 cd         1 P3N       0.482300
     18 C2          -1.6930     1.8170     0.1480 c3         1 P3N      -0.132700
     19 C3          -1.5290     0.2790     0.0750 c3         1 P3N       0.036700
     20 N4          -2.6430    -0.4100     0.6620 ns         1 P3N      -0.481900
     21 N8           0.8590     0.0020     0.1100 ns         1 P3N      -0.487900
     22 C7           2.1940    -0.1130     0.6430 c3         1 P3N       0.024700
     23 C10          2.9410     1.1990     0.4100 c          1 P3N       0.586100
     24 O14          2.7360     1.8710    -0.5900 o          1 P3N      -0.608100
     25 C9           2.9660    -1.2550    -0.0260 c3         1 P3N      -0.086400
     26 C12          2.3660    -2.6260     0.2820 c3         1 P3N      -0.029100
     27 C13          3.1340    -3.7250    -0.3980 ca         1 P3N      -0.083300
     28 C23          2.8360    -4.0930    -1.7090 ca         1 P3N      -0.105500
     29 C27          4.1860    -4.3690     0.2500 ca         1 P3N      -0.105500
     30 C24          3.5690    -5.0780    -2.3560 ca         1 P3N      -0.108000
     31 C26          4.9220    -5.3560    -0.3930 ca         1 P3N      -0.108000
     32 C25          4.6150    -5.7140    -1.6990 ca         1 P3N      -0.109000
     33 C16          6.1320     2.1790     0.7810 ca         1 P3N      -0.126300
     34 C17          7.2210     2.1440     1.6410 ca         1 P3N      -0.092500
     35 C19          8.6660     1.3390    -0.1260 ca         1 P3N      -0.065300
     36 C21          6.3220     1.7860    -0.5440 ca         1 P3N      -0.092500
     37 N11          3.8400     1.5000     1.3550 ns         1 P3N      -0.494900
     38 C18          8.4710     1.7320     1.1930 ca         1 P3N      -0.113500
     39 C22         10.0090     0.8900    -0.6220 c3         1 P3N      -0.048800
     40 C20          7.5670     1.3730    -0.9870 ca         1 P3N      -0.113500
     41 H32         -6.3340    -2.0190    -0.7910 ha         1 P3N       0.169000
     42 H35         -7.8310    -4.0120     2.0640 hc         1 P3N       0.064367
     43 H35A        -8.6220    -2.4400     2.1760 hc         1 P3N       0.064367
     44 H35B        -8.4470    -3.2280     0.6060 hc         1 P3N       0.064367
     45 H41         -6.1640     3.7490     1.2440 hc         1 P3N       0.042922
     46 H41A        -6.1560     4.9710    -0.0330 hc         1 P3N       0.042922
     47 H41B        -7.6700     4.2040     0.4460 hc         1 P3N       0.042922
     48 H42         -8.0920     1.7570    -0.0730 hc         1 P3N       0.042922
     49 H42A        -6.9160     0.8240    -1.0020 hc         1 P3N       0.042922
     50 H42B        -6.5580     1.2860     0.6610 hc         1 P3N       0.042922
     51 H43         -6.6300     4.2760    -2.4660 hc         1 P3N       0.042922
     52 H43A        -6.9460     2.5810    -2.8490 hc         1 P3N       0.042922
     53 H43B        -8.1240     3.5140    -1.9300 hc         1 P3N       0.042922
     54 H2          -0.8490     2.2980    -0.3490 hc         1 P3N       0.090200
     55 H2A         -1.6980     2.1330     1.1920 hc         1 P3N       0.090200
     56 H3          -1.4360    -0.0210    -0.9700 h1         1 P3N       0.096700
     57 HN4         -2.6320    -0.5520     1.6630 hn         1 P3N       0.360500
     58 HN8          0.7810     0.2530    -0.8640 hn         1 P3N       0.335500
     59 H7           2.1100    -0.3150     1.7120 h1         1 P3N       0.091700
     60 H9           2.9910    -1.0910    -1.1080 hc         1 P3N       0.059200
     61 H9A          4.0040    -1.2250     0.3160 hc         1 P3N       0.059200
     62 H12          1.3230    -2.6510    -0.0420 hc         1 P3N       0.054200
     63 H12A         2.3650    -2.7820     1.3640 hc         1 P3N       0.054200
     64 H23          2.0200    -3.6040    -2.2290 ha         1 P3N       0.110000
     65 H27          4.4300    -4.0970     1.2700 ha         1 P3N       0.110000
     66 H24          3.3210    -5.3520    -3.3740 ha         1 P3N       0.112500
     67 H26          5.7320    -5.8480     0.1290 ha         1 P3N       0.112500
     68 H25          5.1860    -6.4840    -2.2030 ha         1 P3N       0.113000
     69 H15          4.3440     3.3620     0.6120 h1         1 P3N       0.066200
     70 H15A         4.8560     3.0550     2.2610 h1         1 P3N       0.066200
     71 H17          7.0970     2.4440     2.6750 ha         1 P3N       0.117500
     72 H21          5.4900     1.8090    -1.2380 ha         1 P3N       0.117500
     73 HN11         3.9460     0.8700     2.1340 hn         1 P3N       0.317500
     74 H18          9.3040     1.7180     1.8860 ha         1 P3N       0.113000
     75 H22         10.3430     1.4960    -1.4650 hc         1 P3N       0.044033
     76 H22A        10.7680     0.9560     0.1570 hc         1 P3N       0.044033
     77 H22B         9.9760    -0.1450    -0.9680 hc         1 P3N       0.044033
     78 H20          7.6920     1.0770    -2.0230 ha         1 P3N       0.113000
     79 O6          -0.3000    -0.3850     2.0220 o          1 P3N      -0.595100
     80 C40         -6.4090     2.9320    -0.7640 c3         1 P3N      -0.069300
     81 C15          4.7720     2.6070     1.2700 c3         1 P3N       0.147300
@<TRIPOS>BOND
     1     1     2 2   
     2     1     6 1   
     3     1    41 1   
     4     2     3 1   
     5     2     4 1   
     6     3    42 1   
     7     3    43 1   
     8     3    44 1   
     9     4     5 1   
    10     5     6 2   
    11     6     7 1   
    12     7     8 2   
    13     7    20 1   
    14     9    19 1   
    15     9    21 1   
    16     9    79 2   
    17    10    45 1   
    18    10    46 1   
    19    10    47 1   
    20    10    80 1   
    21    11    48 1   
    22    11    49 1   
    23    11    50 1   
    24    11    80 1   
    25    12    51 1   
    26    12    52 1   
    27    12    53 1   
    28    12    80 1   
    29    13    14 1   
    30    13    15 2   
    31    13    80 1   
    32    14    17 2   
    33    15    16 1   
    34    16    17 1   
    35    17    18 1   
    36    18    19 1   
    37    18    54 1   
    38    18    55 1   
    39    19    20 1   
    40    19    56 1   
    41    20    57 1   
    42    21    22 1   
    43    21    58 1   
    44    22    23 1   
    45    22    25 1   
    46    22    59 1   
    47    23    24 2   
    48    23    37 1   
    49    25    26 1   
    50    25    60 1   
    51    25    61 1   
    52    26    27 1   
    53    26    62 1   
    54    26    63 1   
    55    27    28 ar  
    56    27    29 ar  
    57    28    30 ar  
    58    28    64 1   
    59    29    31 ar  
    60    29    65 1   
    61    30    32 ar  
    62    30    66 1   
    63    31    32 ar  
    64    31    67 1   
    65    32    68 1   
    66    33    34 ar  
    67    33    36 ar  
    68    33    81 1   
    69    34    38 ar  
    70    34    71 1   
    71    35    38 ar  
    72    35    39 1   
    73    35    40 ar  
    74    36    40 ar  
    75    36    72 1   
    76    37    73 1   
    77    37    81 1   
    78    38    74 1   
    79    39    75 1   
    80    39    76 1   
    81    39    77 1   
    82    40    78 1   
    83    69    81 1   
    84    70    81 1   
@<TRIPOS>SUBSTRUCTURE
     1 P3N         1 TEMP              0 ****  ****    0 ROOT
