@<TRIPOS>MOLECULE
P3N
   81    84     1     0     0
SMALL
No Charge or Current Charge


@<TRIPOS>ATOM
      1 C32         -6.0330    -1.9850     0.6480 cc         1 P3N      -0.201000
      2 C28         -6.5970    -2.4300     1.7960 cd         1 P3N       0.171300
      3 C35         -7.9400    -3.0490     2.0520 c3         1 P3N      -0.135400
      4 O29         -5.7310    -2.2370     2.8390 os         1 P3N      -0.060700
      5 N30         -4.5300    -1.6240     2.3270 nd         1 P3N      -0.347300
      6 C31         -4.7650    -1.4970     1.0230 cc         1 P3N       0.224500
      7 C33         -3.8260    -0.8960     0.0210 c          1 P3N       0.533600
      8 O34         -4.0650    -0.7880    -1.1770 o          1 P3N      -0.587100
      9 C5          -0.1800    -0.0610     0.3660 c          1 P3N       0.596100
     10 C41         -6.7950     3.9850     0.7240 c3         1 P3N      -0.084100
     11 C42         -7.2320     1.5360     0.2450 c3         1 P3N      -0.084100
     12 C43         -7.5900     3.2650    -1.5560 c3         1 P3N      -0.084100
     13 C37         -5.2270     2.6760    -0.7730 cc         1 P3N       0.562300
     14 N36         -4.2780     2.3970     0.1680 nc         1 P3N      -0.719000
     15 N38         -4.8040     2.7350    -2.0280 nd         1 P3N      -0.363300
     16 O39         -3.4260     2.4510    -1.9040 os         1 P3N      -0.083700
     17 C1          -3.2060     2.2570    -0.5760 cd         1 P3N       0.482300
     18 C2          -1.8560     1.8400    -0.0650 c3         1 P3N      -0.132700
     19 C3          -1.5930     0.3110    -0.1690 c3         1 P3N       0.036700
     20 N4          -2.6340    -0.4480     0.5630 ns         1 P3N      -0.481900
     21 N8           0.8720     0.3420    -0.4300 ns         1 P3N      -0.487900
     22 C7           2.3070     0.1130    -0.1340 c3         1 P3N       0.024700
     23 C10          3.1400     1.3670    -0.5330 c          1 P3N       0.586100
     24 O14          2.6890     2.2850    -1.2080 o          1 P3N      -0.608100
     25 C9           2.8350    -1.1660    -0.8420 c3         1 P3N      -0.086400
     26 C12          2.1420    -2.4780    -0.4080 c3         1 P3N      -0.029100
     27 C13          2.7800    -3.6980    -1.0590 ca         1 P3N      -0.083300
     28 C23          2.3510    -4.1290    -2.3300 ca         1 P3N      -0.105500
     29 C27          3.8100    -4.3990    -0.4020 ca         1 P3N      -0.105500
     30 C24          2.9430    -5.2520    -2.9350 ca         1 P3N      -0.108000
     31 C26          4.4020    -5.5210    -1.0070 ca         1 P3N      -0.108000
     32 C25          3.9680    -5.9480    -2.2730 ca         1 P3N      -0.109000
     33 C16          6.7540     2.1170     0.2490 ca         1 P3N      -0.126300
     34 C17          7.0990     2.5450     1.5450 ca         1 P3N      -0.092500
     35 C19          9.2840     1.4770     1.3360 ca         1 P3N      -0.065300
     36 C21          7.6780     1.3630    -0.4980 ca         1 P3N      -0.092500
     37 N11          4.4360     1.3830    -0.0690 ns         1 P3N      -0.494900
     38 C18          8.3580     2.2270     2.0850 ca         1 P3N      -0.113500
     39 C22         10.6440     1.1300     1.9230 c3         1 P3N      -0.048800
     40 C20          8.9360     1.0450     0.0430 ca         1 P3N      -0.113500
     41 H32         -6.4550    -1.9900    -0.3500 ha         1 P3N       0.169000
     42 H35         -7.8330    -4.0400     2.5090 hc         1 P3N       0.064367
     43 H35A        -8.5340    -2.4260     2.7300 hc         1 P3N       0.064367
     44 H35B        -8.5050    -3.1670     1.1200 hc         1 P3N       0.064367
     45 H41         -6.2310     3.7240     1.6280 hc         1 P3N       0.042922
     46 H41A        -6.3960     4.9320     0.3390 hc         1 P3N       0.042922
     47 H41B        -7.8380     4.1510     1.0190 hc         1 P3N       0.042922
     48 H42         -8.2830     1.6360     0.5420 hc         1 P3N       0.042922
     49 H42A        -7.1630     0.7250    -0.4900 hc         1 P3N       0.042922
     50 H42B        -6.6610     1.2350     1.1320 hc         1 P3N       0.042922
     51 H43         -7.2500     4.2050    -2.0070 hc         1 P3N       0.042922
     52 H43A        -7.5780     2.4900    -2.3320 hc         1 P3N       0.042922
     53 H43B        -8.6310     3.4030    -1.2400 hc         1 P3N       0.042922
     54 H2          -1.0850     2.3850    -0.6220 hc         1 P3N       0.090200
     55 H2A         -1.7540     2.1520     0.9810 hc         1 P3N       0.090200
     56 H3          -1.6160     0.0140    -1.2260 h1         1 P3N       0.096700
     57 HN4         -2.5010    -0.6160     1.5570 hn         1 P3N       0.360500
     58 HN8          0.6410     0.8660    -1.2680 hn         1 P3N       0.335500
     59 H7           2.4330    -0.0070     0.9500 h1         1 P3N       0.091700
     60 H9           2.7290    -1.0460    -1.9270 hc         1 P3N       0.059200
     61 H9A          3.9090    -1.2670    -0.6440 hc         1 P3N       0.059200
     62 H12          1.0780    -2.4360    -0.6680 hc         1 P3N       0.054200
     63 H12A         2.1880    -2.5670     0.6850 hc         1 P3N       0.054200
     64 H23          1.5590    -3.5940    -2.8490 ha         1 P3N       0.110000
     65 H27          4.1540    -4.0730     0.5780 ha         1 P3N       0.110000
     66 H24          2.6070    -5.5810    -3.9160 ha         1 P3N       0.112500
     67 H26          5.1970    -6.0590    -0.4950 ha         1 P3N       0.112500
     68 H25          4.4270    -6.8170    -2.7420 ha         1 P3N       0.113000
     69 H15          5.4770     2.6000    -1.4190 h1         1 P3N       0.066200
     70 H15A         5.0150     3.3870     0.1060 h1         1 P3N       0.066200
     71 H17          6.3920     3.1240     2.1370 ha         1 P3N       0.117500
     72 H21          7.4220     1.0200    -1.4990 ha         1 P3N       0.117500
     73 HN11         4.7430     0.5940     0.4870 hn         1 P3N       0.317500
     74 H18          8.6120     2.5630     3.0880 ha         1 P3N       0.113000
     75 H22         11.4060     1.0410     1.1390 hc         1 P3N       0.044033
     76 H22A        10.9840     1.8980     2.6260 hc         1 P3N       0.044033
     77 H22B        10.6040     0.1760     2.4620 hc         1 P3N       0.044033
     78 H20          9.6410     0.4600    -0.5450 ha         1 P3N       0.113000
     79 O6          -0.0020    -0.6660     1.4160 o          1 P3N      -0.595100
     80 C40         -6.6890     2.8650    -0.3500 c3         1 P3N      -0.069300
     81 C15          5.3910     2.4540    -0.3330 c3         1 P3N       0.147300
@<TRIPOS>BOND
     1     1     2 2   
     2     1     6 1   
     3     1    41 1   
     4     2     3 1   
     5     2     4 1   
     6     3    42 1   
     7     3    43 1   
     8     3    44 1   
     9     4     5 1   
    10     5     6 2   
    11     6     7 1   
    12     7     8 2   
    13     7    20 1   
    14     9    19 1   
    15     9    21 1   
    16     9    79 2   
    17    10    45 1   
    18    10    46 1   
    19    10    47 1   
    20    10    80 1   
    21    11    48 1   
    22    11    49 1   
    23    11    50 1   
    24    11    80 1   
    25    12    51 1   
    26    12    52 1   
    27    12    53 1   
    28    12    80 1   
    29    13    14 1   
    30    13    15 2   
    31    13    80 1   
    32    14    17 2   
    33    15    16 1   
    34    16    17 1   
    35    17    18 1   
    36    18    19 1   
    37    18    54 1   
    38    18    55 1   
    39    19    20 1   
    40    19    56 1   
    41    20    57 1   
    42    21    22 1   
    43    21    58 1   
    44    22    23 1   
    45    22    25 1   
    46    22    59 1   
    47    23    24 2   
    48    23    37 1   
    49    25    26 1   
    50    25    60 1   
    51    25    61 1   
    52    26    27 1   
    53    26    62 1   
    54    26    63 1   
    55    27    28 ar  
    56    27    29 ar  
    57    28    30 ar  
    58    28    64 1   
    59    29    31 ar  
    60    29    65 1   
    61    30    32 ar  
    62    30    66 1   
    63    31    32 ar  
    64    31    67 1   
    65    32    68 1   
    66    33    34 ar  
    67    33    36 ar  
    68    33    81 1   
    69    34    38 ar  
    70    34    71 1   
    71    35    38 ar  
    72    35    39 1   
    73    35    40 ar  
    74    36    40 ar  
    75    36    72 1   
    76    37    73 1   
    77    37    81 1   
    78    38    74 1   
    79    39    75 1   
    80    39    76 1   
    81    39    77 1   
    82    40    78 1   
    83    69    81 1   
    84    70    81 1   
@<TRIPOS>SUBSTRUCTURE
     1 P3N         1 TEMP              0 ****  ****    0 ROOT
