@<TRIPOS>MOLECULE
P3O
   51    54     1     0     0
SMALL
abcg2


@<TRIPOS>ATOM
      1 C02        -27.9680    -9.5950   -19.7860 ca         1 P3O       0.125000
      2 C03        -27.6060    -9.4320   -18.4560 ca         1 P3O      -0.101000
      3 C04        -28.5780    -9.5790   -17.4740 ca         1 P3O      -0.088000
      4 C05        -29.8980    -9.8770   -17.8060 ca         1 P3O      -0.091300
      5 C06        -30.9320    -9.9890   -16.7110 c3         1 P3O       0.146300
      6 C08        -31.6770   -12.2880   -16.8760 c          1 P3O       0.610000
      7 C10        -33.9490   -12.7790   -17.5350 cc         1 P3O       0.120400
      8 C11        -34.2440   -11.4660   -17.6820 cd         1 P3O      -0.279400
      9 C12        -35.5990   -10.9910   -18.1200 c6         1 P3O       0.230000
     10 C14        -37.7370   -11.6250   -19.0350 c3         1 P3O       0.215100
     11 C15        -37.7540   -10.5590   -20.1040 ca         1 P3O      -0.095300
     12 C16        -37.1550   -10.8010   -21.3370 ca         1 P3O      -0.047000
     13 C17        -37.1730    -9.8180   -22.3280 ca         1 P3O      -0.023000
     14 C18        -36.5480   -10.0750   -23.5870 cg         1 P3O       0.324000
     15 C20        -37.7940    -8.5830   -22.1010 ca         1 P3O      -0.067000
     16 C21        -38.3890    -8.3480   -20.8730 ca         1 P3O      -0.114000
     17 C22        -38.3640    -9.3270   -19.8830 ca         1 P3O      -0.083000
     18 C23        -36.3880   -13.2290   -17.8310 c6         1 P3O       0.167800
     19 C24        -34.9920   -13.8330   -17.7540 c6         1 P3O      -0.046200
     20 C25        -32.3550   -14.6160   -17.0630 c3         1 P3O       0.085300
     21 C27        -33.2450   -10.4640   -17.4250 c          1 P3O       0.588200
     22 C29        -30.2330   -10.0310   -19.1490 ca         1 P3O      -0.088000
     23 C30        -29.2740    -9.8940   -20.1450 ca         1 P3O      -0.101000
     24 N07        -31.9970   -10.9480   -17.0120 n          1 P3O      -0.369400
     25 N09        -32.6820   -13.1900   -17.1730 n          1 P3O      -0.312000
     26 N13        -36.3830   -12.0670   -18.7130 n3         1 P3O      -0.719600
     27 N19        -36.0480   -10.2770   -24.6060 n1         1 P3O      -0.453000
     28 O26        -30.5630   -12.6410   -16.5130 o          1 P3O      -0.551000
     29 O28        -33.4350    -9.2550   -17.5460 o          1 P3O      -0.536000
     30 CL01       -26.7490    -9.4250   -21.0360 cl         1 P3O      -0.217000
     31 H1         -26.5820    -9.2060   -18.1910 ha         1 P3O       0.130000
     32 H2         -28.2980    -9.4660   -16.4330 ha         1 P3O       0.119500
     33 H3         -30.4570   -10.2840   -15.7790 h1         1 P3O       0.082200
     34 H4         -31.4240    -9.0300   -16.5630 h1         1 P3O       0.082200
     35 H5         -35.4730   -10.1920   -18.8510 h1         1 P3O       0.058700
     36 H6         -36.1290   -10.5420   -17.2600 h1         1 P3O       0.058700
     37 H7         -38.2580   -11.2460   -18.1420 h1         1 P3O       0.042700
     38 H8         -38.2910   -12.4970   -19.3900 h1         1 P3O       0.042700
     39 H9         -36.6660   -11.7480   -21.5240 ha         1 P3O       0.135000
     40 H10        -37.8030    -7.8300   -22.8780 ha         1 P3O       0.127000
     41 H11        -38.8670    -7.3960   -20.6820 ha         1 P3O       0.122000
     42 H12        -38.8230    -9.1280   -18.9220 ha         1 P3O       0.115000
     43 H13        -36.7310   -12.9590   -16.8190 h1         1 P3O       0.041700
     44 H14        -37.0830   -13.9680   -18.2280 h1         1 P3O       0.041700
     45 H15        -34.9570   -14.5630   -16.9420 hc         1 P3O       0.069700
     46 H16        -34.7670   -14.3750   -18.6770 hc         1 P3O       0.069700
     47 H17        -31.2760   -14.7140   -17.0730 h1         1 P3O       0.059700
     48 H18        -32.7460   -15.0310   -16.1340 h1         1 P3O       0.059700
     49 H19        -32.7750   -15.1530   -17.9090 h1         1 P3O       0.059700
     50 H20        -31.2500   -10.2650   -19.4340 ha         1 P3O       0.119500
     51 H21        -29.5400   -10.0180   -21.1860 ha         1 P3O       0.130000
@<TRIPOS>BOND
     1     1     2 ar  
     2     1    23 ar  
     3     1    30 1   
     4     2     3 ar  
     5     2    31 1   
     6     3     4 ar  
     7     3    32 1   
     8     4     5 1   
     9     4    22 ar  
    10     5    24 1   
    11     5    33 1   
    12     5    34 1   
    13     6    24 1   
    14     6    25 1   
    15     6    28 2   
    16     7     8 2   
    17     7    19 1   
    18     7    25 1   
    19     8     9 1   
    20     8    21 1   
    21     9    26 1   
    22     9    35 1   
    23     9    36 1   
    24    10    11 1   
    25    10    26 1   
    26    10    37 1   
    27    10    38 1   
    28    11    12 ar  
    29    11    17 ar  
    30    12    13 ar  
    31    12    39 1   
    32    13    14 1   
    33    13    15 ar  
    34    14    27 3   
    35    15    16 ar  
    36    15    40 1   
    37    16    17 ar  
    38    16    41 1   
    39    17    42 1   
    40    18    19 1   
    41    18    26 1   
    42    18    43 1   
    43    18    44 1   
    44    19    45 1   
    45    19    46 1   
    46    20    25 1   
    47    20    47 1   
    48    20    48 1   
    49    20    49 1   
    50    21    24 1   
    51    21    29 2   
    52    22    23 ar  
    53    22    50 1   
    54    23    51 1   
@<TRIPOS>SUBSTRUCTURE
     1 P3O         1 TEMP              0 ****  ****    0 ROOT
