@<TRIPOS>MOLECULE
P3O
   51    54     1     0     0
SMALL
No Charge or Current Charge


@<TRIPOS>ATOM
      1 C02        -28.3590    -9.2980   -20.1040 ca         1 P3O       0.125000
      2 C03        -28.0150   -10.2750   -19.1570 ca         1 P3O      -0.101000
      3 C04        -28.8330   -10.4810   -18.0310 ca         1 P3O      -0.088000
      4 C05        -30.0000    -9.7120   -17.8490 ca         1 P3O      -0.091300
      5 C06        -30.8910    -9.9400   -16.6320 c3         1 P3O       0.146300
      6 C08        -31.6800   -12.2930   -16.6060 c          1 P3O       0.610000
      7 C10        -33.9480   -12.8600   -17.3330 cc         1 P3O       0.120400
      8 C11        -34.2040   -11.5340   -17.5990 cd         1 P3O      -0.279400
      9 C12        -35.5430   -11.0410   -18.1150 c6         1 P3O       0.230000
     10 C14        -37.6880   -11.7080   -19.1410 c3         1 P3O       0.215100
     11 C15        -37.6300   -10.6490   -20.2370 ca         1 P3O      -0.095300
     12 C16        -36.9980   -10.9400   -21.4620 ca         1 P3O      -0.047000
     13 C17        -36.9300    -9.9670   -22.4780 ca         1 P3O      -0.023000
     14 C18        -36.2810   -10.2700   -23.7240 cg         1 P3O       0.324000
     15 C20        -37.4980    -8.6960   -22.2660 ca         1 P3O      -0.067000
     16 C21        -38.1290    -8.4020   -21.0450 ca         1 P3O      -0.114000
     17 C22        -38.1940    -9.3750   -20.0330 ca         1 P3O      -0.083000
     18 C23        -36.4140   -13.2920   -17.7510 c6         1 P3O       0.167800
     19 C24        -35.0170   -13.9160   -17.5570 c6         1 P3O      -0.046200
     20 C25        -32.3690   -14.6850   -16.6210 c3         1 P3O       0.085300
     21 C27        -33.1910   -10.4890   -17.3630 c          1 P3O       0.588200
     22 C29        -30.3360    -8.7310   -18.8040 ca         1 P3O      -0.088000
     23 C30        -29.5180    -8.5260   -19.9290 ca         1 P3O      -0.101000
     24 N07        -31.9640   -10.9460   -16.8700 n          1 P3O      -0.369400
     25 N09        -32.6880   -13.2490   -16.8670 n          1 P3O      -0.312000
     26 N13        -36.3470   -12.1510   -18.6900 n3         1 P3O      -0.719600
     27 N19        -35.7610   -10.5140   -24.7410 n1         1 P3O      -0.453000
     28 O26        -30.5920   -12.6300   -16.1570 o          1 P3O      -0.551000
     29 O28        -33.4110    -9.3030   -17.5730 o          1 P3O      -0.536000
     30 Cl01       -27.3360    -9.0410   -21.5120 cl         1 P3O      -0.217000
     31 H1         -27.1160   -10.8710   -19.2940 ha         1 P3O       0.130000
     32 H2         -28.5570   -11.2400   -17.3020 ha         1 P3O       0.119500
     33 H3         -30.2690   -10.2490   -15.7820 h1         1 P3O       0.082200
     34 H4         -31.3360    -8.9830   -16.3280 h1         1 P3O       0.082200
     35 H5         -35.3800   -10.2670   -18.8800 h1         1 P3O       0.058700
     36 H6         -36.0900   -10.5600   -17.2900 h1         1 P3O       0.058700
     37 H7         -38.2620   -11.3190   -18.2880 h1         1 P3O       0.042700
     38 H8         -38.2480   -12.5670   -19.5350 h1         1 P3O       0.042700
     39 H9         -36.5560   -11.9220   -21.6170 ha         1 P3O       0.135000
     40 H10        -37.4510    -7.9360   -23.0440 ha         1 P3O       0.127000
     41 H11        -38.5660    -7.4190   -20.8820 ha         1 P3O       0.122000
     42 H12        -38.6820    -9.1360   -19.0900 ha         1 P3O       0.115000
     43 H13        -36.8050   -12.9620   -16.7770 h1         1 P3O       0.041700
     44 H14        -37.0950   -14.0700   -18.1280 h1         1 P3O       0.041700
     45 H15        -35.0730   -14.6220   -16.7190 hc         1 P3O       0.069700
     46 H16        -34.7730   -14.5050   -18.4500 hc         1 P3O       0.069700
     47 H17        -31.2870   -14.8660   -16.6040 h1         1 P3O       0.059700
     48 H18        -32.7940   -14.9960   -15.6580 h1         1 P3O       0.059700
     49 H19        -32.7870   -15.3120   -17.4180 h1         1 P3O       0.059700
     50 H20        -31.2310    -8.1270   -18.6770 ha         1 P3O       0.119500
     51 H21        -29.7810    -7.7690   -20.6640 ha         1 P3O       0.130000
@<TRIPOS>BOND
     1     1     2 ar  
     2     1    23 ar  
     3     1    30 1   
     4     2     3 ar  
     5     2    31 1   
     6     3     4 ar  
     7     3    32 1   
     8     4     5 1   
     9     4    22 ar  
    10     5    24 1   
    11     5    33 1   
    12     5    34 1   
    13     6    24 1   
    14     6    25 1   
    15     6    28 2   
    16     7     8 2   
    17     7    19 1   
    18     7    25 1   
    19     8     9 1   
    20     8    21 1   
    21     9    26 1   
    22     9    35 1   
    23     9    36 1   
    24    10    11 1   
    25    10    26 1   
    26    10    37 1   
    27    10    38 1   
    28    11    12 ar  
    29    11    17 ar  
    30    12    13 ar  
    31    12    39 1   
    32    13    14 1   
    33    13    15 ar  
    34    14    27 3   
    35    15    16 ar  
    36    15    40 1   
    37    16    17 ar  
    38    16    41 1   
    39    17    42 1   
    40    18    19 1   
    41    18    26 1   
    42    18    43 1   
    43    18    44 1   
    44    19    45 1   
    45    19    46 1   
    46    20    25 1   
    47    20    47 1   
    48    20    48 1   
    49    20    49 1   
    50    21    24 1   
    51    21    29 2   
    52    22    23 ar  
    53    22    50 1   
    54    23    51 1   
@<TRIPOS>SUBSTRUCTURE
     1 P3O         1 TEMP              0 ****  ****    0 ROOT
