@<TRIPOS>MOLECULE
P3Q
   51    52     1     0     0
SMALL
bcc


@<TRIPOS>ATOM
      1 C           -2.6590     5.0630    27.5110 c          1 P3Q       0.929600
      2 N           -1.7590     3.7570    25.5960 n8         1 P3Q      -0.895800
      3 O           -2.4600     6.0580    26.7870 o          1 P3Q      -0.831800
      4 C1           2.6140    -0.4240    25.9880 c2         1 P3Q       0.228800
      5 C2           3.7380    -0.5460    24.9950 c3         1 P3Q      -0.065200
      6 C3           4.2470     0.8260    24.5490 c3         1 P3Q      -0.076400
      7 C4           5.3560     0.7040    23.5030 c3         1 P3Q      -0.031100
      8 C5           5.8580     2.0500    23.0620 ca         1 P3Q      -0.078300
      9 C6           6.9070     2.6760    23.7320 ca         1 P3Q      -0.122500
     10 C7           7.3460     3.9370    23.3510 ca         1 P3Q      -0.126000
     11 C8           6.7390     4.5950    22.2880 ca         1 P3Q      -0.130000
     12 C9           5.6910     3.9810    21.6130 ca         1 P3Q      -0.126000
     13 CA          -2.4020     3.6620    26.8960 c3         1 P3Q       0.025500
     14 CB          -1.5400     2.8120    27.8420 c3         1 P3Q      -0.006100
     15 CG          -1.2670     1.4300    27.3190 ca         1 P3Q      -0.089300
     16 CZ          -0.7390    -1.1430    26.2840 ca         1 P3Q       0.149100
     17 C10          5.2570     2.7200    21.9990 ca         1 P3Q      -0.122500
     18 C11          2.8040    -0.3270    27.3440 ce         1 P3Q      -0.429200
     19 C12          4.0890    -0.3350    27.9630 c          1 P3Q       0.594100
     20 O12          4.2880    -0.2420    29.1690 o          1 P3Q      -0.577100
     21 OAZ         -0.4370    -2.3540    25.7820 oh         1 P3Q      -0.500100
     22 CD1         -0.0980     1.1420    26.6330 ca         1 P3Q      -0.052000
     23 CD2         -2.1920     0.3870    27.4610 ca         1 P3Q       0.175100
     24 CE1          0.1890    -0.1170    26.1180 ca         1 P3Q       0.032600
     25 CE2         -1.9310    -0.8810    26.9520 ca         1 P3Q      -0.329000
     26 OXT         -3.0740     5.0680    28.6870 o          1 P3Q      -0.831800
     27 HN          -1.9650     2.9340    25.0460 hn         1 P3Q       0.325800
     28 HNA         -2.1460     4.5500    25.1020 hn         1 P3Q       0.325800
     29 H2           4.5610    -1.1270    25.4120 hc         1 P3Q       0.050200
     30 H2A          3.3860    -1.1050    24.1230 hc         1 P3Q       0.050200
     31 H3           3.4190     1.4120    24.1410 hc         1 P3Q       0.059700
     32 H3A          4.6200     1.3770    25.4160 hc         1 P3Q       0.059700
     33 H4           6.1790     0.1170    23.9190 hc         1 P3Q       0.041700
     34 H4A          4.9780     0.1480    22.6410 hc         1 P3Q       0.041700
     35 H6           7.3890     2.1680    24.5600 ha         1 P3Q       0.128000
     36 H7           8.1650     4.4050    23.8820 ha         1 P3Q       0.127500
     37 H8           7.0810     5.5770    21.9880 ha         1 P3Q       0.127000
     38 H9           5.2140     4.4850    20.7820 ha         1 P3Q       0.127500
     39 HA          -3.3920     3.1810    26.8350 h1         1 P3Q       0.005700
     40 HB          -0.5840     3.3230    27.9880 hc         1 P3Q       0.065200
     41 HBA         -2.0240     2.7650    28.8170 hc         1 P3Q       0.065200
     42 H10          4.4410     2.2480    21.4630 ha         1 P3Q       0.128000
     43 H11          1.9450    -0.2170    27.9950 ha         1 P3Q       0.160000
     44 H12          4.9560    -0.4280    27.2830 h4         1 P3Q      -0.052800
     45 HOAD        -3.9020    -0.1240    28.1540 ho         1 P3Q       0.410000
     46 HOAZ        -1.1570    -2.9750    25.9410 ho         1 P3Q       0.417000
     47 HD1          0.6360     1.9280    26.4960 ha         1 P3Q       0.161000
     48 HE2         -2.6590    -1.6760    27.0830 ha         1 P3Q       0.120000
     49 HNAE         1.3350    -0.5140    24.4280 hn         1 P3Q       0.435800
     50 OAD         -3.3410     0.6580    28.1120 oh         1 P3Q      -0.465100
     51 NAE          1.3950    -0.3560    25.4230 nu         1 P3Q      -0.628400
@<TRIPOS>BOND
     1     1     3 1   
     2     1    13 1   
     3     1    26 1   
     4     2    13 1   
     5     2    27 1   
     6     2    28 1   
     7     4     5 1   
     8     4    18 2   
     9     4    51 1   
    10     5     6 1   
    11     5    29 1   
    12     5    30 1   
    13     6     7 1   
    14     6    31 1   
    15     6    32 1   
    16     7     8 1   
    17     7    33 1   
    18     7    34 1   
    19     8     9 ar  
    20     8    17 ar  
    21     9    10 ar  
    22     9    35 1   
    23    10    11 ar  
    24    10    36 1   
    25    11    12 ar  
    26    11    37 1   
    27    12    17 ar  
    28    12    38 1   
    29    13    14 1   
    30    13    39 1   
    31    14    15 1   
    32    14    40 1   
    33    14    41 1   
    34    15    22 ar  
    35    15    23 ar  
    36    16    21 1   
    37    16    24 ar  
    38    16    25 ar  
    39    17    42 1   
    40    18    19 1   
    41    18    43 1   
    42    19    20 2   
    43    19    44 1   
    44    21    46 1   
    45    22    24 ar  
    46    22    47 1   
    47    23    25 ar  
    48    23    50 1   
    49    24    51 1   
    50    25    48 1   
    51    45    50 1   
    52    49    51 1   
@<TRIPOS>SUBSTRUCTURE
     1 P3Q         1 TEMP              0 ****  ****    0 ROOT
