@<TRIPOS>MOLECULE
P3Q
   51    52     1     0     0
SMALL
No Charge or Current Charge


@<TRIPOS>ATOM
      1 C           -2.8670     4.9610    28.0360 c          1 P3Q       0.719000
      2 N           -1.5990     4.0080    25.9340 n8         1 P3Q      -1.006200
      3 O           -3.8760     5.5520    27.6700 o          1 P3Q      -0.726500
      4 C1           2.6880    -0.2680    26.1170 c2         1 P3Q       0.228800
      5 C2           3.7910    -0.4800    25.0910 c3         1 P3Q      -0.065200
      6 C3           4.3350     0.8510    24.5260 c3         1 P3Q      -0.076400
      7 C4           5.4710     0.6580    23.4990 c3         1 P3Q      -0.031100
      8 C5           5.9910     1.9860    22.9650 ca         1 P3Q      -0.078300
      9 C6           7.0440     2.6520    23.6220 ca         1 P3Q      -0.104500
     10 C7           7.5210     3.8800    23.1330 ca         1 P3Q      -0.108000
     11 C8           6.9460     4.4510    21.9850 ca         1 P3Q      -0.112000
     12 C9           5.8940     3.7930    21.3270 ca         1 P3Q      -0.108000
     13 CA          -2.3930     3.7050    27.1820 c3         1 P3Q       0.025500
     14 CB          -1.6600     2.6510    28.0610 c3         1 P3Q      -0.006100
     15 CG          -1.4090     1.3190    27.3440 ca         1 P3Q      -0.089300
     16 CZ          -0.9110    -1.1180    26.0150 ca         1 P3Q       0.149100
     17 C10          5.4170     2.5640    21.8160 ca         1 P3Q      -0.104500
     18 C11          2.8460     0.0140    27.4220 ce         1 P3Q      -0.479200
     19 C12          4.1560     0.2030    28.0830 c          1 P3Q       0.594100
     20 O12          4.2520     0.4450    29.2790 o          1 P3Q      -0.577100
     21 OAZ         -0.7050    -2.2980    25.3530 oh         1 P3Q      -0.539100
     22 CD1         -0.1330     1.0490    26.8080 ca         1 P3Q      -0.034000
     23 CD2         -2.4290     0.3500    27.2140 ca         1 P3Q       0.175100
     24 CE1          0.1360    -0.1710    26.1580 ca         1 P3Q       0.171000
     25 CE2         -2.1820    -0.8580    26.5470 ca         1 P3Q      -0.311000
     26 OXT         -2.2230     5.2970    29.0230 o          1 P3Q      -0.726500
     27 HN          -1.4540     3.1360    25.4130 hn         1 P3Q       0.381000
     28 HNA         -2.1740     4.5800    25.3040 hn         1 P3Q       0.381000
     29 H2           4.6140    -1.0490    25.5390 hc         1 P3Q       0.050200
     30 H2A          3.4310    -1.0960    24.2570 hc         1 P3Q       0.050200
     31 H3           3.5130     1.4020    24.0530 hc         1 P3Q       0.059700
     32 H3A          4.7010     1.4740    25.3510 hc         1 P3Q       0.059700
     33 H4           6.2890     0.0950    23.9670 hc         1 P3Q       0.041700
     34 H4A          5.1070     0.0360    22.6710 hc         1 P3Q       0.041700
     35 H6           7.4930     2.2170    24.5130 ha         1 P3Q       0.110000
     36 H7           8.3350     4.3900    23.6450 ha         1 P3Q       0.109500
     37 H8           7.3150     5.4020    21.6070 ha         1 P3Q       0.109000
     38 H9           5.4470     4.2350    20.4390 ha         1 P3Q       0.109500
     39 HA          -3.3170     3.2260    26.8300 h1         1 P3Q       0.005700
     40 HB          -0.7120     3.0760    28.4130 hc         1 P3Q       0.065200
     41 HBA         -2.2540     2.4730    28.9660 hc         1 P3Q       0.065200
     42 H10          4.6000     2.0620    21.3030 ha         1 P3Q       0.110000
     43 H11          1.9980     0.1070    28.0910 ha         1 P3Q       0.210000
     44 H12          5.0630     0.1190    27.4460 h4         1 P3Q      -0.052800
     45 HOAD        -4.2230    -0.2180    27.5280 ho         1 P3Q       0.449000
     46 HOAZ        -1.5410    -2.8090    25.3760 ho         1 P3Q       0.456000
     47 HD1          0.6550     1.7930    26.8900 ha         1 P3Q       0.143000
     48 HE2         -2.9760    -1.5930    26.4400 ha         1 P3Q       0.102000
     49 HNAE         1.3520    -1.1370    24.8700 hn         1 P3Q       0.491000
     50 OAD         -3.6730     0.5670    27.7260 oh         1 P3Q      -0.504100
     51 NAE          1.4060    -0.4310    25.6070 nu         1 P3Q      -0.822000
@<TRIPOS>BOND
     1     1     3 1   
     2     1    13 1   
     3     1    26 1   
     4     2    13 1   
     5     2    27 1   
     6     2    28 1   
     7     4     5 1   
     8     4    18 2   
     9     4    51 1   
    10     5     6 1   
    11     5    29 1   
    12     5    30 1   
    13     6     7 1   
    14     6    31 1   
    15     6    32 1   
    16     7     8 1   
    17     7    33 1   
    18     7    34 1   
    19     8     9 ar  
    20     8    17 ar  
    21     9    10 ar  
    22     9    35 1   
    23    10    11 ar  
    24    10    36 1   
    25    11    12 ar  
    26    11    37 1   
    27    12    17 ar  
    28    12    38 1   
    29    13    14 1   
    30    13    39 1   
    31    14    15 1   
    32    14    40 1   
    33    14    41 1   
    34    15    22 ar  
    35    15    23 ar  
    36    16    21 1   
    37    16    24 ar  
    38    16    25 ar  
    39    17    42 1   
    40    18    19 1   
    41    18    43 1   
    42    19    20 2   
    43    19    44 1   
    44    21    46 1   
    45    22    24 ar  
    46    22    47 1   
    47    23    25 ar  
    48    23    50 1   
    49    24    51 1   
    50    25    48 1   
    51    45    50 1   
    52    49    51 1   
@<TRIPOS>SUBSTRUCTURE
     1 P3Q         1 TEMP              0 ****  ****    0 ROOT
