@<TRIPOS>MOLECULE
P3R
   37    38     1     0     0
SMALL
No Charge or Current Charge


@<TRIPOS>ATOM
      1 C10         39.5440    17.5990     7.5430 c3         1 P3R      -0.051100
      2 C13         39.6980    17.3500     6.0280 c3         1 P3R       0.107000
      3 C17         39.4070    14.9500     5.2490 c3         1 P3R       0.084300
      4 C21         41.6470    15.7780     6.0250 c          1 P3R       0.566000
      5 C01         39.8750    18.0020    12.6640 c3         1 P3R       0.145900
      6 O05         41.1930    17.6840    12.1830 os         1 P3R      -0.327100
      7 C06         41.4750    17.5080    10.8370 ca         1 P3R       0.117100
      8 C07         40.4810    17.6280     9.8460 ca         1 P3R      -0.174000
      9 C09         40.7700    17.4470     8.4780 ca         1 P3R      -0.068300
     10 N16         40.2930    16.0330     5.7340 n          1 P3R      -0.412800
     11 O22         42.0920    14.6390     5.9460 o          1 P3R      -0.564000
     12 C23         42.4900    16.9440     6.5990 c3         1 P3R      -0.083400
     13 C25         44.0010    16.7670     6.2830 c3         1 P3R      -0.077100
     14 C29         42.1120    17.1380     8.0840 ca         1 P3R      -0.062300
     15 C30         43.1020    17.0140     9.0920 ca         1 P3R      -0.155000
     16 C32         42.7950    17.1960    10.4570 ca         1 P3R       0.111100
     17 O33         43.7570    17.0780    11.4490 os         1 P3R      -0.329100
     18 C34         45.1330    16.7640    11.1670 c3         1 P3R       0.144900
     19 H1          39.1290    18.6060     7.6660 hc         1 P3R       0.053200
     20 H2          38.7610    16.9170     7.8970 hc         1 P3R       0.053200
     21 H3          40.2690    18.1560     5.5530 h1         1 P3R       0.051700
     22 H4          38.6980    17.4000     5.5780 h1         1 P3R       0.051700
     23 H5          39.8670    14.4520     4.3870 h1         1 P3R       0.044367
     24 H6          39.2540    14.2150     6.0500 h1         1 P3R       0.044367
     25 H7          38.4320    15.3500     4.9440 h1         1 P3R       0.044367
     26 H8          39.8830    18.0970    13.7570 h1         1 P3R       0.040367
     27 H9          39.5260    18.9540    12.2440 h1         1 P3R       0.040367
     28 H10         39.1610    17.2140    12.3970 h1         1 P3R       0.040367
     29 H11         39.4580    17.8630    10.1250 ha         1 P3R       0.115000
     30 H12         42.2010    17.8780     6.1130 hc         1 P3R       0.063700
     31 H13         44.5800    17.6240     6.6480 hc         1 P3R       0.044700
     32 H14         44.4030    15.8510     6.7350 hc         1 P3R       0.044700
     33 H15         44.1560    16.7000     5.1990 hc         1 P3R       0.044700
     34 H16         44.1210    16.7730     8.8180 ha         1 P3R       0.124000
     35 H17         45.7110    16.7230    12.0990 h1         1 P3R       0.041367
     36 H18         45.2170    15.7890    10.6720 h1         1 P3R       0.041367
     37 H19         45.5840    17.5290    10.5220 h1         1 P3R       0.041367
@<TRIPOS>BOND
     1     1     2 1   
     2     1     9 1   
     3     1    19 1   
     4     1    20 1   
     5     2    10 1   
     6     2    21 1   
     7     2    22 1   
     8     3    10 1   
     9     3    23 1   
    10     3    24 1   
    11     3    25 1   
    12     4    10 1   
    13     4    11 2   
    14     4    12 1   
    15     5     6 1   
    16     5    26 1   
    17     5    27 1   
    18     5    28 1   
    19     6     7 1   
    20     7     8 ar  
    21     7    16 ar  
    22     8     9 ar  
    23     8    29 1   
    24     9    14 ar  
    25    12    13 1   
    26    12    14 1   
    27    12    30 1   
    28    13    31 1   
    29    13    32 1   
    30    13    33 1   
    31    14    15 ar  
    32    15    16 ar  
    33    15    34 1   
    34    16    17 1   
    35    17    18 1   
    36    18    35 1   
    37    18    36 1   
    38    18    37 1   
@<TRIPOS>SUBSTRUCTURE
     1 P3R         1 TEMP              0 ****  ****    0 ROOT
