@<TRIPOS>MOLECULE
P3R
   37    38     1     0     0
SMALL
abcg2


@<TRIPOS>ATOM
      1 C10         39.5520    17.5780     7.5710 c3         1 P3R      -0.051100
      2 C13         39.7560    17.3700     6.0760 c3         1 P3R       0.107000
      3 C17         39.4430    15.0190     5.3270 c3         1 P3R       0.084300
      4 C21         41.6420    15.7980     6.0460 c          1 P3R       0.566000
      5 C01         39.9350    17.9120    12.6020 c3         1 P3R       0.145900
      6 O05         41.2600    17.6290    12.1600 os         1 P3R      -0.327100
      7 C06         41.4680    17.4830    10.8230 ca         1 P3R       0.117100
      8 C07         40.4890    17.5970     9.8520 ca         1 P3R      -0.174000
      9 C09         40.7590    17.4410     8.4840 ca         1 P3R      -0.068300
     10 N16         40.3510    16.0740     5.7550 n          1 P3R      -0.412800
     11 O22         42.1410    14.6820     5.8850 o          1 P3R      -0.564000
     12 C23         42.4580    16.9630     6.6180 c3         1 P3R      -0.083400
     13 C25         43.9450    16.7460     6.3600 c3         1 P3R      -0.077100
     14 C29         42.0680    17.1580     8.0860 ca         1 P3R      -0.062300
     15 C30         43.0580    17.0300     9.0740 ca         1 P3R      -0.155000
     16 C32         42.7860    17.1900    10.4220 ca         1 P3R       0.111100
     17 O33         43.7110    17.0840    11.4160 os         1 P3R      -0.329100
     18 C34         45.0600    16.8130    11.0470 c3         1 P3R       0.144900
     19 H1          39.1150    18.5720     7.7100 hc         1 P3R       0.053200
     20 H2          38.7920    16.8690     7.9140 hc         1 P3R       0.053200
     21 H3          40.3510    18.1730     5.6440 h1         1 P3R       0.051700
     22 H4          38.7860    17.4060     5.5820 h1         1 P3R       0.051700
     23 H5          40.0170    14.1260     5.1010 h1         1 P3R       0.044367
     24 H6          38.7190    14.7910     6.1140 h1         1 P3R       0.044367
     25 H7          38.9010    15.3390     4.4360 h1         1 P3R       0.044367
     26 H8          39.9910    17.9860    13.6850 h1         1 P3R       0.040367
     27 H9          39.5750    18.8570    12.1880 h1         1 P3R       0.040367
     28 H10         39.2470    17.1100    12.3250 h1         1 P3R       0.040367
     29 H11         39.4710    17.8140    10.1480 ha         1 P3R       0.115000
     30 H12         42.1800    17.8700     6.0800 hc         1 P3R       0.063700
     31 H13         44.5220    17.5980     6.7220 hc         1 P3R       0.044700
     32 H14         44.3160    15.8410     6.8400 hc         1 P3R       0.044700
     33 H15         44.1180    16.6510     5.2880 hc         1 P3R       0.044700
     34 H16         44.0680    16.8050     8.7770 ha         1 P3R       0.124000
     35 H17         45.6230    16.7810    11.9760 h1         1 P3R       0.041367
     36 H18         45.1440    15.8520    10.5330 h1         1 P3R       0.041367
     37 H19         45.4580    17.6030    10.4030 h1         1 P3R       0.041367
@<TRIPOS>BOND
     1     1     2 1   
     2     1     9 1   
     3     1    19 1   
     4     1    20 1   
     5     2    10 1   
     6     2    21 1   
     7     2    22 1   
     8     3    10 1   
     9     3    23 1   
    10     3    24 1   
    11     3    25 1   
    12     4    10 1   
    13     4    11 2   
    14     4    12 1   
    15     5     6 1   
    16     5    26 1   
    17     5    27 1   
    18     5    28 1   
    19     6     7 1   
    20     7     8 ar  
    21     7    16 ar  
    22     8     9 ar  
    23     8    29 1   
    24     9    14 ar  
    25    12    13 1   
    26    12    14 1   
    27    12    30 1   
    28    13    31 1   
    29    13    32 1   
    30    13    33 1   
    31    14    15 ar  
    32    15    16 ar  
    33    15    34 1   
    34    16    17 1   
    35    17    18 1   
    36    18    35 1   
    37    18    36 1   
    38    18    37 1   
@<TRIPOS>SUBSTRUCTURE
     1 P3R         1 TEMP              0 ****  ****    0 ROOT
