@<TRIPOS>MOLECULE
P3U
   65    68     1     0     0
SMALL
abcg2


@<TRIPOS>ATOM
      1 CAP         -7.7620    -0.1640     0.2880 c6         1 P3U       0.216300
      2 CAN         -8.6950    -1.3460     0.1130 c6         1 P3U       0.144800
      3 NAU         -8.5370    -1.9010    -1.2160 n7         1 P3U      -0.857400
      4 CAO         -7.1850    -2.3930    -1.3740 c6         1 P3U       0.144800
      5 CAQ         -6.1940    -1.2500    -1.2440 c6         1 P3U       0.216300
      6 NBG         -6.3820    -0.5390     0.0080 nh         1 P3U      -0.772300
      7 CBB         -5.3650     0.1930     0.5560 ca         1 P3U       0.624900
      8 CAM         -4.0580     0.1850     0.0270 ca         1 P3U      -0.218000
      9 NAS         -5.6560     0.9190     1.6380 nb         1 P3U      -0.743000
     10 CAI         -4.6930     1.6060     2.2340 ca         1 P3U       0.390900
     11 CAJ         -3.3800     1.6370     1.8090 ca         1 P3U      -0.214000
     12 CAY         -3.0620     0.9030     0.6650 cp         1 P3U       0.021000
     13 CAZ         -1.6860     0.8930     0.1320 cp         1 P3U       0.025000
     14 CAL         -0.8900     2.0300     0.2010 ca         1 P3U      -0.125000
     15 CAX          0.3980     2.0090    -0.2980 ca         1 P3U       0.202500
     16 CLH          1.3320     3.4360    -0.0300 cl         1 P3U      -0.150500
     17 CAK         -1.1470    -0.2630    -0.4130 ca         1 P3U      -0.125000
     18 CAW          0.1430    -0.2830    -0.9200 ca         1 P3U       0.202500
     19 CLG          0.6850    -1.8210    -1.4720 cl         1 P3U      -0.150500
     20 CBE          0.9370     0.8700    -0.9100 ca         1 P3U      -0.263500
     21 SBI          2.6050     0.9320    -1.5880 sy         1 P3U       1.162600
     22 OAE          2.8080    -0.2490    -2.3940 o          1 P3U      -0.518500
     23 OAF          2.8090     2.2320    -2.1910 o          1 P3U      -0.518500
     24 NAV          3.5910     0.8260    -0.2720 nu         1 P3U      -0.857100
     25 CBD          3.5340    -0.3550     0.4910 cc         1 P3U       0.099000
     26 CBA          2.7200    -0.6270     1.5790 cd         1 P3U      -0.137300
     27 CAA          1.7290     0.2200     2.2910 c3         1 P3U      -0.035800
     28 NBH          3.0180    -1.8870     1.9330 na         1 P3U       0.145800
     29 CAD          2.3870    -2.6800     2.9590 c3         1 P3U       0.069900
     30 NAT          3.9470    -2.4440     1.1490 nd         1 P3U      -0.521800
     31 CBC          4.2850    -1.5240     0.2680 cc         1 P3U       0.315300
     32 CAR          5.3590    -1.7640    -0.7390 c3         1 P3U      -0.101700
     33 CBF          6.7720    -1.6990    -0.1440 c3         1 P3U      -0.057700
     34 CAC          7.8030    -2.0700    -1.2030 c3         1 P3U      -0.087100
     35 CAB          7.0740    -0.3250     0.4440 c3         1 P3U      -0.087100
     36 HAP1        -8.0740     0.6500    -0.3810 h1         1 P3U       0.054950
     37 HAP2        -7.8330     0.2050     1.3070 h1         1 P3U       0.054950
     38 HAN1        -8.4890    -2.0830     0.9050 h1         1 P3U       0.040950
     39 HAN2        -9.7200    -0.9990     0.2480 h1         1 P3U       0.040950
     40 HAU         -9.1950    -2.6570    -1.3530 hn         1 P3U       0.416000
     41 HAO1        -6.9280    -3.1650    -0.6300 h1         1 P3U       0.040950
     42 HAO2        -7.0670    -2.8410    -2.3620 h1         1 P3U       0.040950
     43 HAQ1        -5.1960    -1.6820    -1.2830 h1         1 P3U       0.054950
     44 HAQ2        -6.2960    -0.5690    -2.0990 h1         1 P3U       0.054950
     45 HAM         -3.8240    -0.3370    -0.8890 ha         1 P3U       0.127000
     46 HAI         -4.9870     2.1680     3.1140 h4         1 P3U       0.018100
     47 HAJ         -2.6400     2.2010     2.3580 ha         1 P3U       0.125000
     48 HAL         -1.2700     2.9420     0.6400 ha         1 P3U       0.138500
     49 HAK         -1.7250    -1.1770    -0.4220 ha         1 P3U       0.138500
     50 HAV          3.7640     1.7080     0.1960 hn         1 P3U       0.501000
     51 HAA1         0.7030    -0.0600     2.0450 hc         1 P3U       0.053700
     52 HAA2         1.8380     0.1440     3.3730 hc         1 P3U       0.053700
     53 HAA3         1.8620     1.2660     2.0270 hc         1 P3U       0.053700
     54 HAD1         1.5010    -3.1880     2.5770 h1         1 P3U       0.058700
     55 HAD2         3.0950    -3.4230     3.3150 h1         1 P3U       0.058700
     56 HAD3         2.0950    -2.0510     3.7960 h1         1 P3U       0.058700
     57 HAR1         5.2090    -2.7460    -1.1950 hc         1 P3U       0.064200
     58 HAR2         5.2720    -1.0300    -1.5430 hc         1 P3U       0.064200
     59 HBF          6.8280    -2.4380     0.6630 hc         1 P3U       0.050700
     60 HAC1         7.8000    -1.3470    -2.0230 hc         1 P3U       0.032533
     61 HAC2         8.8110    -2.0860    -0.7830 hc         1 P3U       0.032533
     62 HAC3         7.6040    -3.0550    -1.6290 hc         1 P3U       0.032533
     63 HAB1         6.3820    -0.0620     1.2440 hc         1 P3U       0.032533
     64 HAB2         8.0850    -0.2910     0.8560 hc         1 P3U       0.032533
     65 HAB3         7.0010     0.4500    -0.3240 hc         1 P3U       0.032533
@<TRIPOS>BOND
     1     1     2 1   
     2     1     6 1   
     3     1    36 1   
     4     1    37 1   
     5     2     3 1   
     6     2    38 1   
     7     2    39 1   
     8     3     4 1   
     9     3    40 1   
    10     4     5 1   
    11     4    41 1   
    12     4    42 1   
    13     5     6 1   
    14     5    43 1   
    15     5    44 1   
    16     6     7 1   
    17     7     8 ar  
    18     7     9 ar  
    19     8    12 ar  
    20     8    45 1   
    21     9    10 ar  
    22    10    11 ar  
    23    10    46 1   
    24    11    12 ar  
    25    11    47 1   
    26    12    13 1   
    27    13    14 ar  
    28    13    17 ar  
    29    14    15 ar  
    30    14    48 1   
    31    15    16 1   
    32    15    20 ar  
    33    17    18 ar  
    34    17    49 1   
    35    18    19 1   
    36    18    20 ar  
    37    20    21 1   
    38    21    22 2   
    39    21    23 2   
    40    21    24 1   
    41    24    25 1   
    42    24    50 1   
    43    25    26 2   
    44    25    31 1   
    45    26    27 1   
    46    26    28 1   
    47    27    51 1   
    48    27    52 1   
    49    27    53 1   
    50    28    29 1   
    51    28    30 1   
    52    29    54 1   
    53    29    55 1   
    54    29    56 1   
    55    30    31 2   
    56    31    32 1   
    57    32    33 1   
    58    32    57 1   
    59    32    58 1   
    60    33    34 1   
    61    33    35 1   
    62    33    59 1   
    63    34    60 1   
    64    34    61 1   
    65    34    62 1   
    66    35    63 1   
    67    35    64 1   
    68    35    65 1   
@<TRIPOS>SUBSTRUCTURE
     1 P3U         1 TEMP              0 ****  ****    0 ROOT
