@<TRIPOS>MOLECULE
P3U
   65    68     1     0     0
SMALL
No Charge or Current Charge


@<TRIPOS>ATOM
      1 CAP         -7.5080    -0.4570    -0.1660 c6         1 P3U       0.216300
      2 CAN         -8.5270    -1.6100    -0.4510 c6         1 P3U       0.144800
      3 NAU         -8.1610    -2.4350    -1.6370 n7         1 P3U      -0.857400
      4 CAO         -6.7740    -2.9620    -1.5020 c6         1 P3U       0.144800
      5 CAQ         -5.7130    -1.8410    -1.2420 c6         1 P3U       0.216300
      6 NBG         -6.0830    -0.9370    -0.1040 nh         1 P3U      -0.772300
      7 CBB         -5.1020    -0.1840     0.5700 ca         1 P3U       0.624900
      8 CAM         -3.8090     0.0250     0.0540 ca         1 P3U      -0.218000
      9 NAS         -5.4980     0.3150     1.7520 nb         1 P3U      -0.743000
     10 CAI         -4.6110     1.0420     2.4600 ca         1 P3U       0.390900
     11 CAJ         -3.3050     1.2980     2.0190 ca         1 P3U      -0.214000
     12 CAY         -2.8640     0.7850     0.7790 cp         1 P3U       0.021000
     13 CAZ         -1.4800     1.0320     0.2640 cp         1 P3U       0.025000
     14 CAL         -0.7940     2.2300     0.5440 ca         1 P3U      -0.125000
     15 CAX          0.5070     2.4700     0.0740 ca         1 P3U       0.202500
     16 ClH          1.2020     4.0100     0.5840 cl         1 P3U      -0.150500
     17 CAK         -0.8010     0.0680    -0.5060 ca         1 P3U      -0.125000
     18 CAW          0.5000     0.2820    -0.9880 ca         1 P3U       0.202500
     19 ClG          1.1880    -1.0720    -1.8860 cl         1 P3U      -0.150500
     20 CBE          1.1820     1.5010    -0.7190 ca         1 P3U      -0.263500
     21 SBI          2.8790     1.7740    -1.3120 sy         1 P3U       1.162600
     22 OAE          3.1720     0.9620    -2.4940 o          1 P3U      -0.518500
     23 OAF          3.2440     3.1890    -1.2730 o          1 P3U      -0.518500
     24 NAV          3.8760     1.1250    -0.1170 nu         1 P3U      -0.857100
     25 CBD          3.5040     0.0590     0.6890 cc         1 P3U       0.099000
     26 CBA          2.8790     0.0920     1.8980 cd         1 P3U      -0.137300
     27 CAA          2.4110     1.2610     2.7310 c3         1 P3U      -0.035800
     28 NBH          2.7230    -1.2540     2.2590 na         1 P3U       0.145800
     29 CAD          2.0740    -1.7620     3.4770 c3         1 P3U       0.069900
     30 NAT          3.2680    -2.1310     1.3320 nd         1 P3U      -0.521800
     31 CBC          3.7360    -1.3170     0.4050 cc         1 P3U       0.315300
     32 CAR          4.4820    -1.8310    -0.8060 c3         1 P3U      -0.101700
     33 CBF          5.9360    -2.2810    -0.5050 c3         1 P3U      -0.057700
     34 CAC          6.5880    -2.9290    -1.7470 c3         1 P3U      -0.087100
     35 CAB          6.8050    -1.1240     0.0400 c3         1 P3U      -0.087100
     36 HAP1        -7.6040     0.2980    -0.9600 h1         1 P3U       0.054950
     37 HAP2        -7.8120     0.0280     0.7730 h1         1 P3U       0.054950
     38 HAN1        -8.5770    -2.2590     0.4360 h1         1 P3U       0.040950
     39 HAN2        -9.5300    -1.1810    -0.5960 h1         1 P3U       0.040950
     40 HAU         -8.8170    -3.2250    -1.7140 hn         1 P3U       0.416000
     41 HAO1        -6.7420    -3.6750    -0.6640 h1         1 P3U       0.040950
     42 HAO2        -6.5010    -3.5180    -2.4110 h1         1 P3U       0.040950
     43 HAQ1        -4.7500    -2.3340    -1.0430 h1         1 P3U       0.054950
     44 HAQ2        -5.5950    -1.2490    -2.1620 h1         1 P3U       0.054950
     45 HAM         -3.5410    -0.3740    -0.9170 ha         1 P3U       0.127000
     46 HAI         -4.9570     1.4310     3.4170 h4         1 P3U       0.018100
     47 HAJ         -2.6420     1.8800     2.6500 ha         1 P3U       0.125000
     48 HAL         -1.2810     2.9990     1.1360 ha         1 P3U       0.138500
     49 HAK         -1.2830    -0.8820    -0.7200 ha         1 P3U       0.138500
     50 HAV          4.1020     1.9650     0.4030 hn         1 P3U       0.501000
     51 HAA1         1.3180     1.3520     2.7010 hc         1 P3U       0.053700
     52 HAA2         2.7080     1.1440     3.7800 hc         1 P3U       0.053700
     53 HAA3         2.8380     2.2060     2.3760 hc         1 P3U       0.053700
     54 HAD1         1.0690    -1.3310     3.5610 h1         1 P3U       0.058700
     55 HAD2         1.9960    -2.8550     3.4330 h1         1 P3U       0.058700
     56 HAD3         2.6680    -1.4760     4.3530 h1         1 P3U       0.058700
     57 HAR1         3.9250    -2.6770    -1.2240 hc         1 P3U       0.064200
     58 HAR2         4.5050    -1.0710    -1.5920 hc         1 P3U       0.064200
     59 HBF          5.8900    -3.0520     0.2740 hc         1 P3U       0.050700
     60 HAC1         6.6660    -2.2070    -2.5690 hc         1 P3U       0.032533
     61 HAC2         7.5960    -3.2910    -1.5110 hc         1 P3U       0.032533
     62 HAC3         5.9960    -3.7840    -2.0950 hc         1 P3U       0.032533
     63 HAB1         6.3960    -0.7320     0.9780 hc         1 P3U       0.032533
     64 HAB2         7.8270    -1.4680     0.2410 hc         1 P3U       0.032533
     65 HAB3         6.8570    -0.3010    -0.6830 hc         1 P3U       0.032533
@<TRIPOS>BOND
     1     1     2 1   
     2     1     6 1   
     3     1    36 1   
     4     1    37 1   
     5     2     3 1   
     6     2    38 1   
     7     2    39 1   
     8     3     4 1   
     9     3    40 1   
    10     4     5 1   
    11     4    41 1   
    12     4    42 1   
    13     5     6 1   
    14     5    43 1   
    15     5    44 1   
    16     6     7 1   
    17     7     8 ar  
    18     7     9 ar  
    19     8    12 ar  
    20     8    45 1   
    21     9    10 ar  
    22    10    11 ar  
    23    10    46 1   
    24    11    12 ar  
    25    11    47 1   
    26    12    13 1   
    27    13    14 ar  
    28    13    17 ar  
    29    14    15 ar  
    30    14    48 1   
    31    15    16 1   
    32    15    20 ar  
    33    17    18 ar  
    34    17    49 1   
    35    18    19 1   
    36    18    20 ar  
    37    20    21 1   
    38    21    22 2   
    39    21    23 2   
    40    21    24 1   
    41    24    25 1   
    42    24    50 1   
    43    25    26 2   
    44    25    31 1   
    45    26    27 1   
    46    26    28 1   
    47    27    51 1   
    48    27    52 1   
    49    27    53 1   
    50    28    29 1   
    51    28    30 1   
    52    29    54 1   
    53    29    55 1   
    54    29    56 1   
    55    30    31 2   
    56    31    32 1   
    57    32    33 1   
    58    32    57 1   
    59    32    58 1   
    60    33    34 1   
    61    33    35 1   
    62    33    59 1   
    63    34    60 1   
    64    34    61 1   
    65    34    62 1   
    66    35    63 1   
    67    35    64 1   
    68    35    65 1   
@<TRIPOS>SUBSTRUCTURE
     1 P3U         1 TEMP              0 ****  ****    0 ROOT
