@<TRIPOS>MOLECULE
P3V
   76    79     1     0     0
SMALL
No Charge or Current Charge


@<TRIPOS>ATOM
      1 N1           7.5260   -15.7420   -14.1910 nv         1 P3V      -1.093000
      2 C2           8.1500   -16.7250   -14.9020 ca         1 P3V       0.378000
      3 C3           9.4910   -17.0290   -14.6420 ca         1 P3V      -0.218500
      4 C4          10.1400   -18.0390   -15.3710 ca         1 P3V       0.037500
      5 C5           9.4360   -18.7430   -16.3670 ca         1 P3V      -0.378500
      6 C6           8.0850   -18.4380   -16.6240 ca         1 P3V       0.037500
      7 C7           7.4480   -17.4260   -15.8880 ca         1 P3V      -0.218500
      8 S8          10.2690   -20.0280   -17.3060 sy         1 P3V       1.164600
      9 O9          11.2070   -20.6960   -16.3990 o          1 P3V      -0.541000
     10 O10          9.3100   -20.7970   -18.1040 o          1 P3V      -0.541000
     11 N11         11.2220   -19.1450   -18.4330 n3         1 P3V      -0.728500
     12 C12         10.6000   -17.8720   -18.8730 c3         1 P3V       0.210800
     13 C13         11.0910   -17.3360   -20.2450 c3         1 P3V      -0.070700
     14 C14         10.8460   -18.3480   -21.3910 c3         1 P3V      -0.090100
     15 C15         10.4380   -15.9720   -20.5680 c3         1 P3V      -0.090100
     16 C16         12.6850   -19.0400   -18.1010 c3         1 P3V       0.150800
     17 C17         13.5660   -20.2120   -18.6770 c3         1 P3V       0.399000
     18 O18         14.4090   -19.7280   -19.7140 oh         1 P3V      -0.644500
     19 C19         14.4280   -20.9630   -17.5960 c3         1 P3V       0.077700
     20 N20         15.1090   -22.1480   -18.1520 ns         1 P3V      -0.479900
     21 C21         14.9390   -23.4310   -17.7230 c          1 P3V       0.644100
     22 O22         14.1960   -23.7790   -16.8160 o          1 P3V      -0.561000
     23 O23         15.7700   -24.2380   -18.4490 os         1 P3V      -0.446100
     24 C24         15.7630   -25.6460   -18.0710 c5         1 P3V       0.160300
     25 C25         16.2330   -26.4480   -19.3130 c5         1 P3V       0.153600
     26 O26         17.6680   -26.3500   -19.2620 os         1 P3V      -0.460000
     27 C27         18.0550   -26.5740   -17.8960 c5         1 P3V       0.371300
     28 O28         19.1940   -25.7380   -17.6150 os         1 P3V      -0.441000
     29 C29         18.6900   -24.4320   -17.2800 c5         1 P3V       0.152600
     30 C30         17.5400   -24.7760   -16.3060 c5         1 P3V      -0.096400
     31 C31         16.8860   -26.0160   -17.0160 c5         1 P3V      -0.149700
     32 C32         15.4620   -20.0560   -16.8680 c3         1 P3V      -0.038100
     33 C33         17.7000   -20.9040   -15.9880 ca         1 P3V      -0.102000
     34 C34         18.4740   -21.5750   -15.0250 ca         1 P3V      -0.115000
     35 C35         17.8580   -22.1460   -13.8990 ca         1 P3V      -0.113000
     36 C36         16.4670   -22.0440   -13.7360 ca         1 P3V      -0.115000
     37 C37         15.6920   -21.3690   -14.6960 ca         1 P3V      -0.102000
     38 C38         16.3030   -20.7970   -15.8300 ca         1 P3V      -0.081300
     39 O39         12.7010   -21.1180   -19.3330 oh         1 P3V      -0.644500
     40 H1           8.0860   -15.1130   -13.6200 hn         1 P3V       0.476000
     41 H2           6.6230   -15.3940   -14.5090 hn         1 P3V       0.476000
     42 H3          10.0360   -16.4870   -13.8750 ha         1 P3V       0.118000
     43 H4          11.1840   -18.2670   -15.1610 ha         1 P3V       0.129500
     44 H5           7.5270   -18.9750   -17.3910 ha         1 P3V       0.129500
     45 H6           6.4070   -17.1910   -16.0890 ha         1 P3V       0.118000
     46 H7          10.7600   -17.0970   -18.1100 h1         1 P3V       0.043200
     47 H8           9.5140   -18.0060   -18.9690 h1         1 P3V       0.043200
     48 H9          12.1700   -17.1570   -20.1880 hc         1 P3V       0.068700
     49 H10         11.3740   -19.2900   -21.2060 hc         1 P3V       0.038867
     50 H11          9.7770   -18.5710   -21.4910 hc         1 P3V       0.038867
     51 H12         11.2030   -17.9460   -22.3470 hc         1 P3V       0.038867
     52 H13         10.6550   -15.2420   -19.7800 hc         1 P3V       0.038867
     53 H14         10.8220   -15.5720   -21.5140 hc         1 P3V       0.038867
     54 H15          9.3490   -16.0710   -20.6540 hc         1 P3V       0.038867
     55 H16         12.8230   -18.9660   -17.0150 h1         1 P3V       0.057700
     56 H17         13.0990   -18.0990   -18.4810 h1         1 P3V       0.057700
     57 H18         13.8470   -19.1630   -20.2810 ho         1 P3V       0.469000
     58 H19         13.7210   -21.3140   -16.8330 h1         1 P3V       0.099700
     59 H20         15.7300   -22.0240   -18.9400 hn         1 P3V       0.337500
     60 H21         14.7550   -25.9640   -17.7670 h1         1 P3V       0.087700
     61 H22         15.8570   -26.0350   -20.2590 h1         1 P3V       0.061200
     62 H23         15.9400   -27.5050   -19.2450 h1         1 P3V       0.061200
     63 H24         18.2650   -27.6360   -17.7100 h2         1 P3V       0.078700
     64 H25         19.4790   -23.8270   -16.8170 h1         1 P3V       0.055700
     65 H26         18.3370   -23.9270   -18.1900 h1         1 P3V       0.055700
     66 H27         16.8700   -23.9370   -16.1090 hc         1 P3V       0.063700
     67 H28         17.9540   -25.0660   -15.3330 hc         1 P3V       0.063700
     68 H29         16.5290   -26.7630   -16.2990 hc         1 P3V       0.075700
     69 H30         16.1180   -19.5930   -17.6160 hc         1 P3V       0.056200
     70 H31         14.9440   -19.2270   -16.3730 hc         1 P3V       0.056200
     71 H33         19.5520   -21.6530   -15.1530 ha         1 P3V       0.112500
     72 H34         18.4570   -22.6660   -13.1550 ha         1 P3V       0.111000
     73 H35         15.9880   -22.4850   -12.8650 ha         1 P3V       0.112500
     74 H36         14.6160   -21.2930   -14.5580 ha         1 P3V       0.123500
     75 H37         11.8510   -20.6150   -19.3380 ho         1 P3V       0.469000
     76 H32         18.1880   -20.4670   -16.8560 ha         1 P3V       0.123500
@<TRIPOS>BOND
     1     1     2 1   
     2     1    40 1   
     3     1    41 1   
     4     2     3 ar  
     5     2     7 ar  
     6     3     4 ar  
     7     3    42 1   
     8     4     5 ar  
     9     4    43 1   
    10     5     6 ar  
    11     5     8 1   
    12     6     7 ar  
    13     6    44 1   
    14     7    45 1   
    15     8     9 2   
    16     8    10 2   
    17     8    11 1   
    18    11    12 1   
    19    11    16 1   
    20    12    13 1   
    21    12    46 1   
    22    12    47 1   
    23    13    14 1   
    24    13    15 1   
    25    13    48 1   
    26    14    49 1   
    27    14    50 1   
    28    14    51 1   
    29    15    52 1   
    30    15    53 1   
    31    15    54 1   
    32    16    17 1   
    33    16    55 1   
    34    16    56 1   
    35    17    18 1   
    36    17    19 1   
    37    17    39 1   
    38    18    57 1   
    39    19    20 1   
    40    19    32 1   
    41    19    58 1   
    42    20    21 1   
    43    20    59 1   
    44    21    22 2   
    45    21    23 1   
    46    23    24 1   
    47    24    25 1   
    48    24    31 1   
    49    24    60 1   
    50    25    26 1   
    51    25    61 1   
    52    25    62 1   
    53    26    27 1   
    54    27    28 1   
    55    27    31 1   
    56    27    63 1   
    57    28    29 1   
    58    29    30 1   
    59    29    64 1   
    60    29    65 1   
    61    30    31 1   
    62    30    66 1   
    63    30    67 1   
    64    31    68 1   
    65    32    38 1   
    66    32    69 1   
    67    32    70 1   
    68    33    34 ar  
    69    33    38 ar  
    70    33    76 1   
    71    34    35 ar  
    72    34    71 1   
    73    35    36 ar  
    74    35    72 1   
    75    36    37 ar  
    76    36    73 1   
    77    37    38 ar  
    78    37    74 1   
    79    39    75 1   
@<TRIPOS>SUBSTRUCTURE
     1 P3V         1 TEMP              0 ****  ****    0 ROOT
