@<TRIPOS>MOLECULE
P3V
   76    79     1     0     0
SMALL
bcc


@<TRIPOS>ATOM
      1 N1           8.1580   -14.6400   -14.6170 nv         1 P3V      -0.844200
      2 C2           8.8250   -15.7310   -15.0680 ca         1 P3V       0.239600
      3 C3          10.2080   -15.8690   -14.8540 ca         1 P3V      -0.236500
      4 C4          10.8780   -16.9980   -15.2710 ca         1 P3V       0.019500
      5 C5          10.1890   -18.0220   -15.9220 ca         1 P3V      -0.378500
      6 C6           8.8170   -17.9040   -16.1350 ca         1 P3V       0.019500
      7 C7           8.1450   -16.7760   -15.7170 ca         1 P3V      -0.236500
      8 S8          11.0570   -19.4420   -16.4790 sy         1 P3V       1.306200
      9 O9          12.1520   -19.6900   -15.5510 o          1 P3V      -0.611800
     10 O10         10.0830   -20.4940   -16.7260 o          1 P3V      -0.611800
     11 N11         11.7500   -19.0730   -17.9480 n3         1 P3V      -0.728500
     12 C12         10.7870   -18.6690   -18.9880 c3         1 P3V       0.210800
     13 C13         10.8390   -19.4860   -20.2770 c3         1 P3V      -0.070700
     14 C14         10.6130   -20.9720   -20.0290 c3         1 P3V      -0.090100
     15 C15          9.7980   -18.9310   -21.2450 c3         1 P3V      -0.090100
     16 C16         13.0490   -18.4010   -17.9530 c3         1 P3V       0.150800
     17 C17         14.2230   -19.2840   -18.4390 c3         1 P3V       0.352600
     18 O18         15.3020   -18.4580   -18.7680 oh         1 P3V      -0.582300
     19 C19         14.6580   -20.3750   -17.4240 c3         1 P3V       0.077700
     20 N20         15.5370   -21.3260   -18.0570 ns         1 P3V      -0.546900
     21 C21         15.1060   -22.4970   -18.5460 c          1 P3V       0.760100
     22 O22         13.9520   -22.8820   -18.5290 o          1 P3V      -0.610000
     23 O23         16.1260   -23.1990   -19.0590 os         1 P3V      -0.422900
     24 C24         15.8940   -24.5560   -19.4260 c5         1 P3V       0.137100
     25 C25         16.8690   -24.9150   -20.5310 c5         1 P3V       0.130400
     26 O26         18.0720   -25.2440   -19.8710 os         1 P3V      -0.413600
     27 C27         17.7420   -25.9650   -18.7050 c5         1 P3V       0.324900
     28 O28         18.5910   -25.6240   -17.6660 os         1 P3V      -0.394600
     29 C29         17.9670   -24.6290   -16.8590 c5         1 P3V       0.129400
     30 C30         16.4880   -24.9860   -16.8980 c5         1 P3V      -0.096400
     31 C31         16.3050   -25.5350   -18.3150 c5         1 P3V      -0.149700
     32 C32         15.3560   -19.8180   -16.1780 c3         1 P3V      -0.038100
     33 C33         17.1210   -21.2440   -15.0870 ca         1 P3V      -0.120000
     34 C34         17.5150   -22.2880   -14.2610 ca         1 P3V      -0.133000
     35 C35         16.5620   -23.0380   -13.5850 ca         1 P3V      -0.131000
     36 C36         15.2160   -22.7270   -13.7360 ca         1 P3V      -0.133000
     37 C37         14.8270   -21.6790   -14.5570 ca         1 P3V      -0.120000
     38 C38         15.7750   -20.9250   -15.2480 ca         1 P3V      -0.081300
     39 O39         13.9100   -19.8780   -19.6580 oh         1 P3V      -0.582300
     40 H1           8.6840   -13.8180   -14.3740 hn         1 P3V       0.420800
     41 H2           7.2350   -14.4570   -14.9740 hn         1 P3V       0.420800
     42 H3          10.7530   -15.0830   -14.3450 ha         1 P3V       0.136000
     43 H4          11.9380   -17.0790   -15.0730 ha         1 P3V       0.147500
     44 H5           8.2640   -18.6950   -16.6220 ha         1 P3V       0.147500
     45 H6           7.0780   -16.6980   -15.8860 ha         1 P3V       0.136000
     46 H7          10.9470   -17.6110   -19.2160 h1         1 P3V       0.043200
     47 H8           9.7710   -18.7380   -18.5930 h1         1 P3V       0.043200
     48 H9          11.8210   -19.3430   -20.7320 hc         1 P3V       0.068700
     49 H10         11.3000   -21.3860   -19.2890 hc         1 P3V       0.038867
     50 H11          9.6030   -21.1570   -19.6580 hc         1 P3V       0.038867
     51 H12         10.7390   -21.5410   -20.9510 hc         1 P3V       0.038867
     52 H13          9.9720   -17.8740   -21.4580 hc         1 P3V       0.038867
     53 H14          9.8260   -19.4670   -22.1940 hc         1 P3V       0.038867
     54 H15          8.7880   -19.0290   -20.8400 hc         1 P3V       0.038867
     55 H16         13.2840   -17.9730   -16.9760 h1         1 P3V       0.057700
     56 H17         12.9870   -17.5570   -18.6430 h1         1 P3V       0.057700
     57 H18         15.4520   -17.8130   -18.0690 ho         1 P3V       0.430000
     58 H19         13.7670   -20.9170   -17.1020 h1         1 P3V       0.099700
     59 H20         16.5130   -21.0920   -18.1500 hn         1 P3V       0.337500
     60 H21         14.8590   -24.6920   -19.7370 h1         1 P3V       0.087700
     61 H22         17.0500   -24.1020   -21.2350 h1         1 P3V       0.061200
     62 H23         16.4730   -25.7700   -21.0930 h1         1 P3V       0.061200
     63 H24         17.8490   -27.0400   -18.8920 h2         1 P3V       0.078700
     64 H25         18.3980   -24.6840   -15.8600 h1         1 P3V       0.055700
     65 H26         18.1520   -23.6240   -17.2530 h1         1 P3V       0.055700
     66 H27         15.8470   -24.1470   -16.6340 hc         1 P3V       0.063700
     67 H28         16.2800   -25.7770   -16.1770 hc         1 P3V       0.063700
     68 H29         15.6230   -26.3850   -18.3300 hc         1 P3V       0.075700
     69 H30         16.2410   -19.2480   -16.4730 hc         1 P3V       0.056200
     70 H31         14.6870   -19.1290   -15.6630 hc         1 P3V       0.056200
     71 H33         18.5660   -22.5190   -14.1490 ha         1 P3V       0.130500
     72 H34         16.8650   -23.8570   -12.9460 ha         1 P3V       0.129000
     73 H35         14.4660   -23.3020   -13.2070 ha         1 P3V       0.130500
     74 H36         13.7750   -21.4420   -14.6610 ha         1 P3V       0.141500
     75 H37         13.2640   -20.5790   -19.5110 ho         1 P3V       0.430000
     76 H32         17.8730   -20.6700   -15.6170 ha         1 P3V       0.141500
@<TRIPOS>BOND
     1     1     2 1   
     2     1    40 1   
     3     1    41 1   
     4     2     3 ar  
     5     2     7 ar  
     6     3     4 ar  
     7     3    42 1   
     8     4     5 ar  
     9     4    43 1   
    10     5     6 ar  
    11     5     8 1   
    12     6     7 ar  
    13     6    44 1   
    14     7    45 1   
    15     8     9 2   
    16     8    10 2   
    17     8    11 1   
    18    11    12 1   
    19    11    16 1   
    20    12    13 1   
    21    12    46 1   
    22    12    47 1   
    23    13    14 1   
    24    13    15 1   
    25    13    48 1   
    26    14    49 1   
    27    14    50 1   
    28    14    51 1   
    29    15    52 1   
    30    15    53 1   
    31    15    54 1   
    32    16    17 1   
    33    16    55 1   
    34    16    56 1   
    35    17    18 1   
    36    17    19 1   
    37    17    39 1   
    38    18    57 1   
    39    19    20 1   
    40    19    32 1   
    41    19    58 1   
    42    20    21 1   
    43    20    59 1   
    44    21    22 2   
    45    21    23 1   
    46    23    24 1   
    47    24    25 1   
    48    24    31 1   
    49    24    60 1   
    50    25    26 1   
    51    25    61 1   
    52    25    62 1   
    53    26    27 1   
    54    27    28 1   
    55    27    31 1   
    56    27    63 1   
    57    28    29 1   
    58    29    30 1   
    59    29    64 1   
    60    29    65 1   
    61    30    31 1   
    62    30    66 1   
    63    30    67 1   
    64    31    68 1   
    65    32    38 1   
    66    32    69 1   
    67    32    70 1   
    68    33    34 ar  
    69    33    38 ar  
    70    33    76 1   
    71    34    35 ar  
    72    34    71 1   
    73    35    36 ar  
    74    35    72 1   
    75    36    37 ar  
    76    36    73 1   
    77    37    38 ar  
    78    37    74 1   
    79    39    75 1   
@<TRIPOS>SUBSTRUCTURE
     1 P3V         1 TEMP              0 ****  ****    0 ROOT
