@<TRIPOS>MOLECULE
P3Y
   48    51     1     0     0
SMALL
No Charge or Current Charge


@<TRIPOS>ATOM
      1 N1          -0.2470    -2.9610    -1.1330 nb         1 P3Y      -0.682000
      2 C2           0.7230    -2.0120    -1.0790 ca         1 P3Y       0.370900
      3 C3           0.5170    -0.6730    -0.6310 cp         1 P3Y      -0.133000
      4 C4          -0.7980    -0.3300    -0.2260 ca         1 P3Y       0.001000
      5 C5          -1.7770    -1.3260    -0.3110 ca         1 P3Y      -0.112800
      6 C6          -1.4820    -2.5970    -0.7440 ca         1 P3Y       0.368500
      7 C9          -3.1660    -1.2930     0.0290 cc         1 P3Y      -0.059400
      8 C10         -3.6800    -2.5580    -0.1970 cd         1 P3Y      -0.144100
      9 N11         -2.6270    -3.3740    -0.6880 na         1 P3Y      -0.321400
     10 C14         -3.9990    -0.1910     0.5130 ca         1 P3Y      -0.051800
     11 C15         -4.0100     1.0710    -0.1310 ca         1 P3Y       0.150100
     12 C16         -4.8250     2.1080     0.3790 ca         1 P3Y      -0.199000
     13 C17         -5.6250     1.8910     1.5130 ca         1 P3Y      -0.070000
     14 C18         -5.6210     0.6380     2.1430 ca         1 P3Y      -0.148000
     15 C19         -4.8140    -0.3980     1.6440 ca         1 P3Y      -0.072000
     16 O1          -3.2380     1.2480    -1.2650 os         1 P3Y      -0.335100
     17 C24          1.6310     0.3310    -0.5930 cp         1 P3Y      -0.075000
     18 C25          1.3890     1.7180    -0.7790 ca         1 P3Y       0.354900
     19 N26          2.3570     2.6630    -0.7770 nb         1 P3Y      -0.669000
     20 C27          3.6320     2.2610    -0.5730 ca         1 P3Y       0.376900
     21 C28          3.9900     0.9230    -0.3490 ca         1 P3Y      -0.196600
     22 C29          2.9760    -0.0590    -0.3810 ca         1 P3Y      -0.048000
     23 C33          5.4440     0.6000    -0.1470 c          1 P3Y       0.618700
     24 O34          6.3050     1.2680    -0.7070 o          1 P3Y      -0.592100
     25 N35          5.8000    -0.5370     0.6180 n          1 P3Y      -0.406800
     26 C41          7.2060    -0.9970     0.6210 c3         1 P3Y       0.087300
     27 C45          4.9850    -0.9590     1.7820 c3         1 P3Y       0.087300
     28 C1          -3.1730     2.4990    -1.9710 c3         1 P3Y       0.144900
     29 H11A        -2.4950     2.4150    -2.8300 h1         1 P3Y       0.041367
     30 H12         -4.1620     2.7880    -2.3470 h1         1 P3Y       0.041367
     31 H13         -2.7960     3.2970    -1.3180 h1         1 P3Y       0.041367
     32 H16         -4.8560     3.0860    -0.0920 ha         1 P3Y       0.118000
     33 H17         -6.2500     2.6920     1.9010 ha         1 P3Y       0.112000
     34 H18         -6.2420     0.4680     3.0190 ha         1 P3Y       0.116000
     35 H19         -4.8140    -1.3630     2.1450 ha         1 P3Y       0.113000
     36 H10         -4.6950    -2.9260    -0.0630 h4         1 P3Y       0.219000
     37 H11         -2.6830    -4.3490    -0.9540 hn         1 P3Y       0.363000
     38 H2           1.7070    -2.3340    -1.4160 h4         1 P3Y       0.021100
     39 H4          -1.0440     0.6590     0.1500 ha         1 P3Y       0.128000
     40 H25          0.3790     2.0830    -0.9590 h4         1 P3Y       0.022100
     41 H27          4.3840     3.0510    -0.5750 h4         1 P3Y       0.035100
     42 H29          3.2230    -1.1100    -0.2560 ha         1 P3Y       0.126000
     43 H411         7.8280    -0.2870     1.1810 h1         1 P3Y       0.043033
     44 H412         7.2790    -1.9860     1.0910 h1         1 P3Y       0.043033
     45 H413         7.5790    -1.0710    -0.4080 h1         1 P3Y       0.043033
     46 H451         4.4440    -1.8820     1.5420 h1         1 P3Y       0.043033
     47 H452         5.6340    -1.1470     2.6460 h1         1 P3Y       0.043033
     48 H453         4.2670    -0.1760     2.0600 h1         1 P3Y       0.043033
@<TRIPOS>BOND
     1     1     2 ar  
     2     1     6 ar  
     3     2     3 ar  
     4     2    38 1   
     5     3     4 ar  
     6     3    17 1   
     7     4     5 ar  
     8     4    39 1   
     9     5     6 ar  
    10     5     7 1   
    11     6     9 1   
    12     7     8 2   
    13     7    10 1   
    14     8     9 1   
    15     8    36 1   
    16     9    37 1   
    17    10    11 ar  
    18    10    15 ar  
    19    11    12 ar  
    20    11    16 1   
    21    12    13 ar  
    22    12    32 1   
    23    13    14 ar  
    24    13    33 1   
    25    14    15 ar  
    26    14    34 1   
    27    15    35 1   
    28    16    28 1   
    29    17    18 ar  
    30    17    22 ar  
    31    18    19 ar  
    32    18    40 1   
    33    19    20 ar  
    34    20    21 ar  
    35    20    41 1   
    36    21    22 ar  
    37    21    23 1   
    38    22    42 1   
    39    23    24 2   
    40    23    25 1   
    41    25    26 1   
    42    25    27 1   
    43    26    43 1   
    44    26    44 1   
    45    26    45 1   
    46    27    46 1   
    47    27    47 1   
    48    27    48 1   
    49    28    29 1   
    50    28    30 1   
    51    28    31 1   
@<TRIPOS>SUBSTRUCTURE
     1 P3Y         1 TEMP              0 ****  ****    0 ROOT
