@<TRIPOS>MOLECULE
P3Y
   48    51     1     0     0
SMALL
bcc


@<TRIPOS>ATOM
      1 N1          -0.2680    -2.9200    -1.3610 nb         1 P3Y      -0.682000
      2 C2           0.6890    -2.0100    -1.3100 ca         1 P3Y       0.436200
      3 C3           0.5180    -0.7020    -0.8220 cp         1 P3Y      -0.198300
      4 C4          -0.7390    -0.3130    -0.3740 ca         1 P3Y      -0.017000
      5 C5          -1.7730    -1.2380    -0.4320 ca         1 P3Y      -0.178100
      6 C6          -1.4520    -2.5240    -0.9240 ca         1 P3Y       0.433800
      7 C9          -3.1590    -1.2620    -0.0690 cc         1 P3Y      -0.059400
      8 C10         -3.5940    -2.5300    -0.3480 cd         1 P3Y      -0.094100
      9 N11         -2.5770    -3.2830    -0.8600 na         1 P3Y      -0.271100
     10 C14         -3.9670    -0.1980     0.5360 ca         1 P3Y      -0.051800
     11 C15         -3.9940     1.0990    -0.0090 ca         1 P3Y       0.150100
     12 C16         -4.7710     2.0910     0.5830 ca         1 P3Y      -0.217000
     13 C17         -5.5430     1.7970     1.7000 ca         1 P3Y      -0.088000
     14 C18         -5.5430     0.5210     2.2390 ca         1 P3Y      -0.166000
     15 C19         -4.7520    -0.4600     1.6550 ca         1 P3Y      -0.090000
     16 O1          -3.2540     1.2890    -1.1160 os         1 P3Y      -0.311900
     17 C24          1.6550     0.2330    -0.8020 cp         1 P3Y      -0.140300
     18 C25          1.4800     1.5840    -1.1050 ca         1 P3Y       0.420200
     19 N26          2.4590     2.4760    -1.1050 nb         1 P3Y      -0.669000
     20 C27          3.6850     2.0620    -0.8200 ca         1 P3Y       0.442200
     21 C28          3.9820     0.7420    -0.4960 ca         1 P3Y      -0.261900
     22 C29          2.9460    -0.1800    -0.4880 ca         1 P3Y      -0.066000
     23 C33          5.4110     0.3530    -0.2830 c          1 P3Y       0.685700
     24 O34          6.2480     0.7090    -1.1050 o          1 P3Y      -0.592100
     25 N35          5.7080    -0.4000     0.7890 n          1 P3Y      -0.473800
     26 C41          7.0530    -0.9220     0.9390 c3         1 P3Y       0.087300
     27 C45          4.8420    -0.5920     1.9360 c3         1 P3Y       0.087300
     28 C1          -3.1810     2.5830    -1.6770 c3         1 P3Y       0.121700
     29 H11A        -2.5230     2.5090    -2.5390 h1         1 P3Y       0.041367
     30 H12         -4.1580     2.9410    -2.0130 h1         1 P3Y       0.041367
     31 H13         -2.7620     3.3100    -0.9760 h1         1 P3Y       0.041367
     32 H16         -4.7970     3.0930     0.1780 ha         1 P3Y       0.136000
     33 H17         -6.1460     2.5780     2.1450 ha         1 P3Y       0.130000
     34 H18         -6.1400     0.2910     3.1110 ha         1 P3Y       0.134000
     35 H19         -4.7270    -1.4540     2.0850 ha         1 P3Y       0.131000
     36 H10         -4.5800    -2.9510    -0.2260 h4         1 P3Y       0.169000
     37 H11         -2.6550    -4.2420    -1.1590 hn         1 P3Y       0.312700
     38 H2           1.6580    -2.3170    -1.6880 h4         1 P3Y       0.021100
     39 H4          -0.8960     0.6770     0.0340 ha         1 P3Y       0.146000
     40 H25          0.4960     1.9530    -1.3780 h4         1 P3Y       0.022100
     41 H27          4.4690     2.8100    -0.8380 h4         1 P3Y       0.035100
     42 H29          3.1380    -1.2160    -0.2350 ha         1 P3Y       0.144000
     43 H411         7.6860    -0.2400     1.5100 h1         1 P3Y       0.043033
     44 H412         7.0040    -1.8700     1.4730 h1         1 P3Y       0.043033
     45 H413         7.5120    -1.0960    -0.0300 h1         1 P3Y       0.043033
     46 H451         4.4570    -1.6120     1.9810 h1         1 P3Y       0.043033
     47 H452         5.4100    -0.4030     2.8470 h1         1 P3Y       0.043033
     48 H453         4.0030     0.0970     1.9250 h1         1 P3Y       0.043033
@<TRIPOS>BOND
     1     1     2 ar  
     2     1     6 ar  
     3     2     3 ar  
     4     2    38 1   
     5     3     4 ar  
     6     3    17 1   
     7     4     5 ar  
     8     4    39 1   
     9     5     6 ar  
    10     5     7 1   
    11     6     9 1   
    12     7     8 2   
    13     7    10 1   
    14     8     9 1   
    15     8    36 1   
    16     9    37 1   
    17    10    11 ar  
    18    10    15 ar  
    19    11    12 ar  
    20    11    16 1   
    21    12    13 ar  
    22    12    32 1   
    23    13    14 ar  
    24    13    33 1   
    25    14    15 ar  
    26    14    34 1   
    27    15    35 1   
    28    16    28 1   
    29    17    18 ar  
    30    17    22 ar  
    31    18    19 ar  
    32    18    40 1   
    33    19    20 ar  
    34    20    21 ar  
    35    20    41 1   
    36    21    22 ar  
    37    21    23 1   
    38    22    42 1   
    39    23    24 2   
    40    23    25 1   
    41    25    26 1   
    42    25    27 1   
    43    26    43 1   
    44    26    44 1   
    45    26    45 1   
    46    27    46 1   
    47    27    47 1   
    48    27    48 1   
    49    28    29 1   
    50    28    30 1   
    51    28    31 1   
@<TRIPOS>SUBSTRUCTURE
     1 P3Y         1 TEMP              0 ****  ****    0 ROOT
