@<TRIPOS>MOLECULE
P3Z
   35    37     1     0     0
SMALL
bcc


@<TRIPOS>ATOM
      1 CAA          5.4880    -0.8120    -0.6760 c3         1 P3Z       0.123700
      2 OAB         -0.8940     1.6140     1.4360 oh         1 P3Z      -0.591800
      3 CAC          2.9030     0.2920    -0.7240 ca         1 P3Z      -0.192000
      4 CAD          2.3000    -1.2600     1.0080 ca         1 P3Z      -0.192000
      5 CAE          1.6070     0.7950    -0.7050 ca         1 P3Z      -0.076000
      6 CAF          1.0170    -0.7500     1.0090 ca         1 P3Z      -0.076000
      7 CAG         -3.6740    -2.1500     0.0540 ca         1 P3Z       0.639900
      8 CAH         -2.9310    -0.2480     1.0180 ca         1 P3Z       0.444700
      9 CAI         -1.7140    -1.3130    -0.6800 ca         1 P3Z       0.444700
     10 CAJ         -2.1800     2.8110    -0.7940 cx         1 P3Z      -0.116400
     11 CAK         -0.7470     3.2430    -0.9000 cx         1 P3Z      -0.116400
     12 NAL         -3.8650    -1.1920     0.9450 nb         1 P3Z      -0.701000
     13 NAM         -2.6400    -2.2580    -0.7670 nb         1 P3Z      -0.701000
     14 OAN          4.4850    -1.2940     0.1980 os         1 P3Z      -0.314900
     15 CAO          3.2610    -0.7400     0.1370 ca         1 P3Z       0.152100
     16 CAP          0.6410     0.2890     0.1520 ca         1 P3Z      -0.163300
     17 CAQ         -1.8010    -0.2530     0.2140 ca         1 P3Z      -0.345900
     18 CAR         -1.0950     1.7880    -0.9120 cx         1 P3Z      -0.129700
     19 CAS         -0.7660     0.8630     0.2490 c3         1 P3Z       0.311400
     20 HAA          6.3830    -1.3930    -0.4690 h1         1 P3Z       0.042700
     21 HAAA         5.2140    -0.9480    -1.7260 h1         1 P3Z       0.042700
     22 HAAB         5.7070     0.2450    -0.5040 h1         1 P3Z       0.042700
     23 HOAB        -0.5160     1.1180     2.1710 ho         1 P3Z       0.414000
     24 HAC          3.6130     0.7240    -1.4160 ha         1 P3Z       0.143000
     25 HAD          2.5650    -2.0670     1.6790 ha         1 P3Z       0.143000
     26 HAE          1.3680     1.6020    -1.3840 ha         1 P3Z       0.135000
     27 HAF          0.2940    -1.1880     1.6890 ha         1 P3Z       0.135000
     28 HAH         -3.0910     0.5340     1.7510 h4         1 P3Z       0.032600
     29 HAI         -0.8640    -1.4040    -1.3500 h4         1 P3Z       0.032600
     30 HAJ         -2.6740     2.9320     0.1620 hc         1 P3Z       0.076200
     31 HAJA        -2.8260     2.9560    -1.6490 hc         1 P3Z       0.076200
     32 HAK         -0.4100     3.6850    -1.8290 hc         1 P3Z       0.076200
     33 HAKA        -0.2750     3.6510    -0.0160 hc         1 P3Z       0.076200
     34 HAR         -1.0250     1.2920    -1.8760 hc         1 P3Z       0.081700
     35 HAG         -4.4340    -2.9200    -0.0110 h5         1 P3Z       0.049100
@<TRIPOS>BOND
     1     1    14 1   
     2     1    20 1   
     3     1    21 1   
     4     1    22 1   
     5     2    19 1   
     6     2    23 1   
     7     3     5 ar  
     8     3    15 ar  
     9     3    24 1   
    10     4     6 ar  
    11     4    15 ar  
    12     4    25 1   
    13     5    16 ar  
    14     5    26 1   
    15     6    16 ar  
    16     6    27 1   
    17     7    12 ar  
    18     7    13 ar  
    19     7    35 1   
    20     8    12 ar  
    21     8    17 ar  
    22     8    28 1   
    23     9    13 ar  
    24     9    17 ar  
    25     9    29 1   
    26    10    11 1   
    27    10    18 1   
    28    10    30 1   
    29    10    31 1   
    30    11    18 1   
    31    11    32 1   
    32    11    33 1   
    33    14    15 1   
    34    16    19 1   
    35    17    19 1   
    36    18    19 1   
    37    18    34 1   
@<TRIPOS>SUBSTRUCTURE
     1 P3Z         1 TEMP              0 ****  ****    0 ROOT
