@<TRIPOS>MOLECULE
P3Z
   35    37     1     0     0
SMALL
No Charge or Current Charge


@<TRIPOS>ATOM
      1 CAA          5.5950    -0.8860    -0.6780 c3         1 P3Z       0.146900
      2 OAB         -0.8560     1.6100     1.4710 oh         1 P3Z      -0.654000
      3 CAC          2.9470     0.3210    -0.6810 ca         1 P3Z      -0.174000
      4 CAD          2.2760    -1.3370     0.9570 ca         1 P3Z      -0.174000
      5 CAE          1.6530     0.8710    -0.6540 ca         1 P3Z      -0.058000
      6 CAF          0.9830    -0.7890     0.9870 ca         1 P3Z      -0.058000
      7 CAG         -3.6640    -2.1930     0.1360 ca         1 P3Z       0.113900
      8 CAH         -2.9650    -0.2130     1.0640 ca         1 P3Z       0.116400
      9 CAI         -1.7100    -1.3030    -0.6700 ca         1 P3Z       0.116400
     10 CAJ         -2.2680     2.8220    -0.8800 cx         1 P3Z      -0.116400
     11 CAK         -0.8460     3.3330    -0.9240 cx         1 P3Z      -0.116400
     12 NAL         -3.8840    -1.2000     1.0220 nb         1 P3Z      -0.175000
     13 NAM         -2.6240    -2.2930    -0.7170 nb         1 P3Z      -0.175000
     14 OAN          4.5140    -1.3720     0.1390 os         1 P3Z      -0.338100
     15 CAO          3.2630    -0.7910     0.1250 ca         1 P3Z       0.152100
     16 CAP          0.6460     0.3180     0.1730 ca         1 P3Z      -0.163300
     17 CAQ         -1.8240    -0.2210     0.2300 ca         1 P3Z      -0.215300
     18 CAR         -1.1150     1.8410    -0.9390 cx         1 P3Z      -0.129700
     19 CAS         -0.7810     0.9020     0.2360 c3         1 P3Z       0.334600
     20 HAA          6.4960    -1.4900    -0.5140 h1         1 P3Z       0.042700
     21 HAAA         5.3350    -0.9440    -1.7430 h1         1 P3Z       0.042700
     22 HAAB         5.8340     0.1550    -0.4290 h1         1 P3Z       0.042700
     23 HOAB        -0.4230     1.0320     2.1300 ho         1 P3Z       0.453000
     24 HAC          3.6890     0.7730    -1.3320 ha         1 P3Z       0.125000
     25 HAD          2.5150    -2.1920     1.5850 ha         1 P3Z       0.125000
     26 HAE          1.4520     1.7350    -1.2830 ha         1 P3Z       0.117000
     27 HAF          0.2400    -1.2350     1.6460 ha         1 P3Z       0.117000
     28 HAH         -3.1610     0.5900     1.7710 h4         1 P3Z       0.032600
     29 HAI         -0.8770    -1.3810    -1.3670 h4         1 P3Z       0.032600
     30 HAJ         -2.8130     2.9220     0.0560 hc         1 P3Z       0.076200
     31 HAJA        -2.8780     2.9390    -1.7730 hc         1 P3Z       0.076200
     32 HAK         -0.5010     3.7930    -1.8470 hc         1 P3Z       0.076200
     33 HAKA        -0.4390     3.7790    -0.0190 hc         1 P3Z       0.076200
     34 HAR         -0.9790     1.3390    -1.8940 hc         1 P3Z       0.081700
     35 HAG         -4.4040    -2.9910     0.1010 h5         1 P3Z       0.049100
@<TRIPOS>BOND
     1     1    14 1   
     2     1    20 1   
     3     1    21 1   
     4     1    22 1   
     5     2    19 1   
     6     2    23 1   
     7     3     5 ar  
     8     3    15 ar  
     9     3    24 1   
    10     4     6 ar  
    11     4    15 ar  
    12     4    25 1   
    13     5    16 ar  
    14     5    26 1   
    15     6    16 ar  
    16     6    27 1   
    17     7    12 ar  
    18     7    13 ar  
    19     7    35 1   
    20     8    12 ar  
    21     8    17 ar  
    22     8    28 1   
    23     9    13 ar  
    24     9    17 ar  
    25     9    29 1   
    26    10    11 1   
    27    10    18 1   
    28    10    30 1   
    29    10    31 1   
    30    11    18 1   
    31    11    32 1   
    32    11    33 1   
    33    14    15 1   
    34    16    19 1   
    35    17    19 1   
    36    18    19 1   
    37    18    34 1   
@<TRIPOS>SUBSTRUCTURE
     1 P3Z         1 TEMP              0 ****  ****    0 ROOT
