@<TRIPOS>MOLECULE
P40
   61    65     1     0     0
SMALL
abcg2


@<TRIPOS>ATOM
      1 C1          -5.1430    -0.1400     0.0470 c3         1 P40       0.238800
      2 C2          -6.5240     0.2540     0.5560 c3         1 P40       0.149800
      3 C7          -9.9520    -0.5730    -0.6710 c6         1 P40       0.153100
      4 C8          -8.8740     0.1640     0.1000 c6         1 P40       0.125800
      5 C9           1.1740     0.3970    -0.3630 ca         1 P40      -0.038000
      6 C10          2.0240     1.3670     0.1110 cp         1 P40      -0.067000
      7 C11          1.4780     2.4110     0.9010 ca         1 P40      -0.060000
      8 C12          0.1420     2.4880     1.1840 ca         1 P40      -0.118000
      9 C13          3.4760     1.3050    -0.1700 cp         1 P40      -0.043000
     10 C14          4.1760     0.1510     0.1680 ca         1 P40      -0.047000
     11 C15          5.5350     0.0170    -0.0950 ca         1 P40      -0.156600
     12 C16          6.2080     1.0820    -0.6850 ca         1 P40      -0.082000
     13 C19          6.2170    -1.2510     0.3040 c          1 P40       0.614700
     14 C20          8.0900    -2.7360    -0.1170 cx         1 P40       0.045700
     15 C21          9.5760    -2.6310    -0.2340 cx         1 P40      -0.131900
     16 C22          8.9380    -2.7730     1.1130 cx         1 P40      -0.131900
     17 N29         -2.4130    -0.4180    -0.3120 nb         1 P40      -0.227000
     18 C30         -1.1370    -0.4940    -0.5550 ca         1 P40       0.176900
     19 N3          -7.5830    -0.4650    -0.1190 n3         1 P40      -0.715600
     20 C4          -7.6520    -1.8660     0.2580 c6         1 P40       0.125800
     21 C5          -8.7620    -2.5580    -0.5120 c6         1 P40       0.153100
     22 O6         -10.0090    -1.9340    -0.3060 os         1 P40      -0.448000
     23 C17          5.5200     2.2350    -1.0220 ca         1 P40      -0.124000
     24 C18          4.1540     2.3690    -0.7860 ca         1 P40      -0.039300
     25 C23          3.4550     3.6260    -1.2170 c3         1 P40      -0.052800
     26 O24          5.7840    -1.9530     1.2070 o          1 P40      -0.591100
     27 C25         -0.2040     0.4580    -0.0880 ca         1 P40      -0.206000
     28 C26         -0.7480     1.5090     0.6830 ca         1 P40       0.092000
     29 N27         -2.0650     1.5880     0.9370 nb         1 P40      -0.264000
     30 C28         -2.8340     0.6420     0.4310 ca         1 P40       0.389900
     31 N31         -4.1550     0.7140     0.6670 nu         1 P40      -0.923100
     32 N32          7.3270    -1.5640    -0.3920 ns         1 P40      -0.482900
     33 H9           1.5530    -0.4190    -0.9680 ha         1 P40       0.118000
     34 H11          2.1400     3.1640     1.3090 ha         1 P40       0.117000
     35 H12         -0.2490     3.2930     1.7920 ha         1 P40       0.133000
     36 H14          3.6470    -0.6620     0.6510 ha         1 P40       0.138000
     37 H16          7.2740     1.0360    -0.8720 ha         1 P40       0.112000
     38 H17          6.0560     3.0500    -1.4910 ha         1 P40       0.115000
     39 H20          7.6360    -3.6710    -0.4330 h1         1 P40       0.084700
     40 H30         -0.7940    -1.3380    -1.1470 h4         1 P40       0.022100
     41 HN31        -4.4690     1.5580     1.1210 hn         1 P40       0.501000
     42 HN32         7.5340    -1.0610    -1.2400 hn         1 P40       0.318500
     43 H31         -4.9230    -1.1820     0.2820 h1         1 P40       0.059700
     44 H41         -5.1250    -0.0430    -1.0430 h1         1 P40       0.059700
     45 H52         -6.5670     0.1260     1.6500 h1         1 P40       0.037200
     46 H62         -6.6690     1.3200     0.3590 h1         1 P40       0.037200
     47 H74         -6.7130    -2.3680     0.0220 h1         1 P40       0.042950
     48 H84         -7.8220    -1.9850     1.3430 h1         1 P40       0.042950
     49 H95         -8.5080    -2.5660    -1.5810 h1         1 P40       0.051950
     50 H05         -8.8550    -3.5940    -0.1810 h1         1 P40       0.051950
     51 H17A       -10.9290    -0.1360    -0.4600 h1         1 P40       0.051950
     52 H27         -9.7600    -0.4720    -1.7490 h1         1 P40       0.051950
     53 H38         -8.8360     1.2000    -0.2480 h1         1 P40       0.042950
     54 H48         -9.1420     0.1920     1.1710 h1         1 P40       0.042950
     55 H221        10.1060    -3.4780    -0.6500 hc         1 P40       0.077950
     56 H321         9.9930    -1.6670    -0.4970 hc         1 P40       0.077950
     57 H422         8.9210    -1.9030     1.7560 hc         1 P40       0.077950
     58 H522         9.0270    -3.7170     1.6340 hc         1 P40       0.077950
     59 H623         3.3290     4.3230    -0.3860 hc         1 P40       0.047700
     60 H723         4.0330     4.1420    -1.9820 hc         1 P40       0.047700
     61 H823         2.4640     3.4230    -1.6210 hc         1 P40       0.047700
@<TRIPOS>BOND
     1     1     2 1   
     2     1    31 1   
     3     1    43 1   
     4     1    44 1   
     5     2    19 1   
     6     2    45 1   
     7     2    46 1   
     8     3     4 1   
     9     3    22 1   
    10     3    51 1   
    11     3    52 1   
    12     4    19 1   
    13     4    53 1   
    14     4    54 1   
    15     5     6 ar  
    16     5    27 ar  
    17     5    33 1   
    18     6     7 ar  
    19     6     9 1   
    20     7     8 ar  
    21     7    34 1   
    22     8    28 ar  
    23     8    35 1   
    24     9    10 ar  
    25     9    24 ar  
    26    10    11 ar  
    27    10    36 1   
    28    11    12 ar  
    29    11    13 1   
    30    12    23 ar  
    31    12    37 1   
    32    13    26 2   
    33    13    32 1   
    34    14    15 1   
    35    14    16 1   
    36    14    32 1   
    37    14    39 1   
    38    15    16 1   
    39    15    55 1   
    40    15    56 1   
    41    16    57 1   
    42    16    58 1   
    43    17    18 ar  
    44    17    30 ar  
    45    18    27 ar  
    46    18    40 1   
    47    19    20 1   
    48    20    21 1   
    49    20    47 1   
    50    20    48 1   
    51    21    22 1   
    52    21    49 1   
    53    21    50 1   
    54    23    24 ar  
    55    23    38 1   
    56    24    25 1   
    57    25    59 1   
    58    25    60 1   
    59    25    61 1   
    60    27    28 ar  
    61    28    29 ar  
    62    29    30 ar  
    63    30    31 1   
    64    31    41 1   
    65    32    42 1   
@<TRIPOS>SUBSTRUCTURE
     1 P40         1 TEMP              0 ****  ****    0 ROOT
