@<TRIPOS>MOLECULE
P40
   61    65     1     0     0
SMALL
No Charge or Current Charge


@<TRIPOS>ATOM
      1 C1          -5.2790    -0.0980    -0.0880 c3         1 P40       0.238800
      2 C2          -6.6770     0.3280     0.4500 c3         1 P40       0.149800
      3 C7         -10.3560    -0.6070    -0.2930 c6         1 P40       0.153100
      4 C8          -9.1490     0.1740     0.3060 c6         1 P40       0.125800
      5 C9           1.1730     0.4390    -0.5890 ca         1 P40      -0.038000
      6 C10          2.0690     1.3650    -0.0050 cp         1 P40      -0.067000
      7 C11          1.5380     2.3540     0.8580 ca         1 P40      -0.060000
      8 C12          0.1580     2.4270     1.1150 ca         1 P40      -0.118000
      9 C13          3.5350     1.2740    -0.2750 cp         1 P40      -0.043000
     10 C14          4.2060     0.0530    -0.0190 ca         1 P40      -0.047000
     11 C15          5.5920    -0.1020    -0.2420 ca         1 P40      -0.156600
     12 C16          6.3170     1.0050    -0.7390 ca         1 P40      -0.082000
     13 C19          6.2490    -1.4350     0.0600 c          1 P40       0.614700
     14 C20          8.3960    -2.7030     0.0470 cx         1 P40       0.045700
     15 C21          9.8970    -2.5520     0.0220 cx         1 P40      -0.131900
     16 C22          9.1830    -2.7790     1.3320 cx         1 P40      -0.131900
     17 N29         -2.4330    -0.3260    -0.6670 nb         1 P40      -0.227000
     18 C30         -1.1110    -0.3950    -0.9110 ca         1 P40       0.176900
     19 N3          -7.8390    -0.4260    -0.1000 n3         1 P40      -0.715600
     20 C4          -7.8150    -1.8930     0.2110 c6         1 P40       0.125800
     21 C5          -9.0530    -2.6310    -0.3820 c6         1 P40       0.153100
     22 O6         -10.2780    -2.0070     0.0700 os         1 P40      -0.448000
     23 C17          5.6670     2.2190    -1.0080 ca         1 P40      -0.124000
     24 C18          4.2850     2.3680    -0.7880 ca         1 P40      -0.039300
     25 C23          3.6380     3.7040    -1.1410 c3         1 P40      -0.052800
     26 O24          5.6170    -2.3890     0.4950 o          1 P40      -0.591100
     27 C25         -0.2080     0.5150    -0.3300 ca         1 P40      -0.206000
     28 C26         -0.7300     1.5120     0.5240 ca         1 P40       0.092000
     29 N27         -2.0570     1.5730     0.7640 nb         1 P40      -0.264000
     30 C28         -2.8350     0.6570     0.1600 ca         1 P40       0.389900
     31 N31         -4.1890     0.7600     0.4360 nu         1 P40      -0.923100
     32 N32          7.6040    -1.5250    -0.1820 ns         1 P40      -0.482900
     33 H9           1.5580    -0.3330    -1.2530 ha         1 P40       0.118000
     34 H11          2.2060     3.0630     1.3400 ha         1 P40       0.117000
     35 H12         -0.2250     3.1960     1.7810 ha         1 P40       0.133000
     36 H14          3.6290    -0.7820     0.3710 ha         1 P40       0.138000
     37 H16          7.3860     0.9430    -0.9270 ha         1 P40       0.112000
     38 H17          6.2470     3.0530    -1.3980 ha         1 P40       0.115000
     39 H20          7.9650    -3.6240    -0.3500 h1         1 P40       0.084700
     40 H30         -0.7750    -1.1870    -1.5790 h4         1 P40       0.022100
     41 HN31        -4.4450     1.5230     1.0640 hn         1 P40       0.501000
     42 HN32         8.0500    -0.6950    -0.5480 hn         1 P40       0.318500
     43 H31         -5.0890    -1.1420     0.1930 h1         1 P40       0.059700
     44 H41         -5.2980    -0.0470    -1.1850 h1         1 P40       0.059700
     45 H52         -6.6670     0.2400     1.5450 h1         1 P40       0.037200
     46 H62         -6.8050     1.3940     0.2180 h1         1 P40       0.037200
     47 H74         -6.9100    -2.3640    -0.1960 h1         1 P40       0.042950
     48 H84         -7.8000    -2.0520     1.3000 h1         1 P40       0.042950
     49 H95         -9.0150    -2.6030    -1.4810 h1         1 P40       0.051950
     50 H05         -9.0470    -3.6840    -0.0670 h1         1 P40       0.051950
     51 H17A       -11.2990    -0.1890     0.0860 h1         1 P40       0.051950
     52 H27        -10.3570    -0.5150    -1.3890 h1         1 P40       0.051950
     53 H38         -9.2090     1.2210    -0.0250 h1         1 P40       0.042950
     54 H48         -9.2430     0.1770     1.4020 h1         1 P40       0.042950
     55 H221        10.4780    -3.3750    -0.3870 hc         1 P40       0.077950
     56 H321        10.3130    -1.5650    -0.1640 hc         1 P40       0.077950
     57 H422         9.1120    -1.9430     2.0240 hc         1 P40       0.077950
     58 H522         9.2830    -3.7530     1.8040 hc         1 P40       0.077950
     59 H623         3.5530     4.3460    -0.2570 hc         1 P40       0.047700
     60 H723         4.2260     4.2500    -1.8890 hc         1 P40       0.047700
     61 H823         2.6350     3.5690    -1.5610 hc         1 P40       0.047700
@<TRIPOS>BOND
     1     1     2 1   
     2     1    31 1   
     3     1    43 1   
     4     1    44 1   
     5     2    19 1   
     6     2    45 1   
     7     2    46 1   
     8     3     4 1   
     9     3    22 1   
    10     3    51 1   
    11     3    52 1   
    12     4    19 1   
    13     4    53 1   
    14     4    54 1   
    15     5     6 ar  
    16     5    27 ar  
    17     5    33 1   
    18     6     7 ar  
    19     6     9 1   
    20     7     8 ar  
    21     7    34 1   
    22     8    28 ar  
    23     8    35 1   
    24     9    10 ar  
    25     9    24 ar  
    26    10    11 ar  
    27    10    36 1   
    28    11    12 ar  
    29    11    13 1   
    30    12    23 ar  
    31    12    37 1   
    32    13    26 2   
    33    13    32 1   
    34    14    15 1   
    35    14    16 1   
    36    14    32 1   
    37    14    39 1   
    38    15    16 1   
    39    15    55 1   
    40    15    56 1   
    41    16    57 1   
    42    16    58 1   
    43    17    18 ar  
    44    17    30 ar  
    45    18    27 ar  
    46    18    40 1   
    47    19    20 1   
    48    20    21 1   
    49    20    47 1   
    50    20    48 1   
    51    21    22 1   
    52    21    49 1   
    53    21    50 1   
    54    23    24 ar  
    55    23    38 1   
    56    24    25 1   
    57    25    59 1   
    58    25    60 1   
    59    25    61 1   
    60    27    28 ar  
    61    28    29 ar  
    62    29    30 ar  
    63    30    31 1   
    64    31    41 1   
    65    32    42 1   
@<TRIPOS>SUBSTRUCTURE
     1 P40         1 TEMP              0 ****  ****    0 ROOT
