@<TRIPOS>MOLECULE
P41
   41    44     1     0     0
SMALL
No Charge or Current Charge


@<TRIPOS>ATOM
      1 C13         -6.6280    33.8890    73.5900 ca         1 P41      -0.204000
      2 C18         -2.1200    36.0380    74.1450 c3         1 P41      -0.113100
      3 C17         -3.4530    36.7420    76.2350 c3         1 P41      -0.113100
      4 C16         -4.5820    34.1010    74.8190 cc         1 P41       0.664100
      5 C15         -9.8150    32.7440    71.9480 cc         1 P41       0.207500
      6 C11         -6.2020    32.7530    74.2480 ca         1 P41       0.166400
      7 C12        -11.1510    31.8730    74.7440 ca         1 P41       0.178000
      8 C1         -13.0660    29.8420    74.4790 ca         1 P41      -0.132000
      9 C2         -12.6480    30.2400    75.7570 ca         1 P41      -0.079000
     10 C3         -12.5200    30.4500    73.3350 ca         1 P41      -0.057000
     11 C4          -8.1490    31.5680    73.4070 ca         1 P41      -0.067000
     12 C5          -6.9590    31.5750    74.1610 ca         1 P41      -0.088000
     13 C6         -11.7000    31.2660    75.8850 ca         1 P41      -0.155000
     14 C7          -7.8080    33.9150    72.8320 ca         1 P41      -0.023000
     15 C8         -11.0300    32.8490    70.2040 cc         1 P41       0.438900
     16 C9          -8.5890    32.7430    72.7480 ca         1 P41      -0.145500
     17 C10        -11.5210    31.4460    73.4440 ca         1 P41      -0.147500
     18 C14        -10.9930    32.0690    72.2040 cd         1 P41       0.293500
     19 N20        -11.7730    32.1590    71.0650 nd         1 P41      -0.669000
     20 N21         -5.0160    32.8550    74.9660 nd         1 P41      -0.654100
     21 N22         -3.4150    34.3790    75.4670 nu         1 P41      -0.886400
     22 O23         -9.8100    33.2300    70.6840 os         1 P41      -0.274000
     23 S25         -5.5320    35.2380    73.8270 ss         1 P41      -0.035200
     24 H18         -2.9320    36.3220    73.4670 hc         1 P41       0.049700
     25 H18A        -1.4440    36.8960    74.2360 hc         1 P41       0.049700
     26 H18B        -1.5590    35.2140    73.6880 hc         1 P41       0.049700
     27 H17         -3.8080    36.4030    77.2150 hc         1 P41       0.049700
     28 H17A        -2.8190    37.6230    76.3930 hc         1 P41       0.049700
     29 H17B        -4.3180    37.0550    75.6420 hc         1 P41       0.049700
     30 H19         -1.7660    35.4410    76.1610 h1         1 P41       0.055700
     31 H1         -13.8170    29.0620    74.3720 ha         1 P41       0.120000
     32 H2         -13.0750    29.7730    76.6420 ha         1 P41       0.118000
     33 H3         -12.8610    30.1210    72.3550 ha         1 P41       0.130000
     34 H4          -8.7270    30.6490    73.3350 ha         1 P41       0.123000
     35 H5          -6.6260    30.6740    74.6700 ha         1 P41       0.133000
     36 H6         -11.4030    31.6100    76.8730 ha         1 P41       0.133000
     37 H7          -8.1170    34.8260    72.3230 ha         1 P41       0.130000
     38 H8         -11.2910    33.1300    69.1900 h5         1 P41       0.083100
     39 HN22        -3.0620    33.5680    75.9680 hn         1 P41       0.499000
     40 F24        -10.3360    32.9330    74.9280 f          1 P41      -0.176000
     41 C19         -2.6490    35.6290    75.5340 c3         1 P41       0.247500
@<TRIPOS>BOND
     1     1     6 ar  
     2     1    14 ar  
     3     1    23 1   
     4     2    24 1   
     5     2    25 1   
     6     2    26 1   
     7     2    41 1   
     8     3    27 1   
     9     3    28 1   
    10     3    29 1   
    11     3    41 1   
    12     4    20 2   
    13     4    21 1   
    14     4    23 1   
    15     5    16 1   
    16     5    18 2   
    17     5    22 1   
    18     6    12 ar  
    19     6    20 1   
    20     7    13 ar  
    21     7    17 ar  
    22     7    40 1   
    23     8     9 ar  
    24     8    10 ar  
    25     8    31 1   
    26     9    13 ar  
    27     9    32 1   
    28    10    17 ar  
    29    10    33 1   
    30    11    12 ar  
    31    11    16 ar  
    32    11    34 1   
    33    12    35 1   
    34    13    36 1   
    35    14    16 ar  
    36    14    37 1   
    37    15    19 2   
    38    15    22 1   
    39    15    38 1   
    40    17    18 1   
    41    18    19 1   
    42    21    39 1   
    43    21    41 1   
    44    30    41 1   
@<TRIPOS>SUBSTRUCTURE
     1 P41         1 TEMP              0 ****  ****    0 ROOT
