@<TRIPOS>MOLECULE
P41
   41    44     1     0     0
SMALL
abcg2


@<TRIPOS>ATOM
      1 C13         -6.5020    33.8060    73.5680 ca         1 P41      -0.204000
      2 C18         -2.0760    36.0580    73.9710 c3         1 P41      -0.113100
      3 C17         -3.3870    36.7630    76.0350 c3         1 P41      -0.113100
      4 C16         -4.4080    34.0080    74.8540 cc         1 P41       0.664100
      5 C15         -9.7890    32.7440    72.1690 cc         1 P41       0.207500
      6 C11         -6.1990    32.7560    74.4620 ca         1 P41       0.166400
      7 C12        -11.4770    31.8160    74.7700 ca         1 P41       0.178000
      8 C1         -12.9980    29.5950    74.2050 ca         1 P41      -0.132000
      9 C2         -12.8060    29.9840    75.5280 ca         1 P41      -0.079000
     10 C3         -12.4170    30.3220    73.1760 ca         1 P41      -0.057000
     11 C4          -8.2530    31.6930    73.8080 ca         1 P41      -0.067000
     12 C5          -7.0950    31.6880    74.5660 ca         1 P41      -0.088000
     13 C6         -12.0400    31.1080    75.8150 ca         1 P41      -0.155000
     14 C7          -7.6580    33.8210    72.8090 ca         1 P41      -0.023000
     15 C8         -11.0100    33.1760    70.4220 cc         1 P41       0.438900
     16 C9          -8.5550    32.7530    72.9350 ca         1 P41      -0.145500
     17 C10        -11.6270    31.4500    73.4340 ca         1 P41      -0.147500
     18 C14        -11.0370    32.2060    72.3270 cd         1 P41       0.293500
     19 N20        -11.7910    32.4870    71.1820 nd         1 P41      -0.669000
     20 N21         -5.0270    32.8970    75.1680 nd         1 P41      -0.654100
     21 N22         -3.2260    34.3550    75.3910 nu         1 P41      -0.886400
     22 O23         -9.7810    33.3800    70.9440 os         1 P41      -0.274000
     23 S25         -5.2280    35.0010    73.6290 ss         1 P41      -0.035200
     24 H18         -2.9030    36.3110    73.3060 hc         1 P41       0.049700
     25 H18A        -1.4370    36.9390    74.0460 hc         1 P41       0.049700
     26 H18B        -1.5020    35.2490    73.5180 hc         1 P41       0.049700
     27 H17         -3.6880    36.4590    77.0380 hc         1 P41       0.049700
     28 H17A        -2.7920    37.6750    76.1130 hc         1 P41       0.049700
     29 H17B        -4.2840    36.9960    75.4600 hc         1 P41       0.049700
     30 H19         -1.6680    35.5020    75.9800 h1         1 P41       0.055700
     31 H1         -13.5980    28.7240    73.9760 ha         1 P41       0.120000
     32 H2         -13.2530    29.4200    76.3360 ha         1 P41       0.118000
     33 H3         -12.5600    30.0190    72.1470 ha         1 P41       0.130000
     34 H4          -8.9350    30.8580    73.8830 ha         1 P41       0.123000
     35 H5          -6.8750    30.8650    75.2330 ha         1 P41       0.133000
     36 H6         -11.8840    31.4470    76.8310 ha         1 P41       0.133000
     37 H7          -7.8770    34.6440    72.1420 ha         1 P41       0.130000
     38 H8         -11.2120    33.6020    69.4530 h5         1 P41       0.083100
     39 HN22        -2.9180    33.7200    76.1130 hn         1 P41       0.499000
     40 F24        -10.7640    32.9280    75.0730 f          1 P41      -0.176000
     41 C19         -2.5550    35.6660    75.3670 c3         1 P41       0.247500
@<TRIPOS>BOND
     1     1     6 ar  
     2     1    14 ar  
     3     1    23 1   
     4     2    24 1   
     5     2    25 1   
     6     2    26 1   
     7     2    41 1   
     8     3    27 1   
     9     3    28 1   
    10     3    29 1   
    11     3    41 1   
    12     4    20 2   
    13     4    21 1   
    14     4    23 1   
    15     5    16 1   
    16     5    18 2   
    17     5    22 1   
    18     6    12 ar  
    19     6    20 1   
    20     7    13 ar  
    21     7    17 ar  
    22     7    40 1   
    23     8     9 ar  
    24     8    10 ar  
    25     8    31 1   
    26     9    13 ar  
    27     9    32 1   
    28    10    17 ar  
    29    10    33 1   
    30    11    12 ar  
    31    11    16 ar  
    32    11    34 1   
    33    12    35 1   
    34    13    36 1   
    35    14    16 ar  
    36    14    37 1   
    37    15    19 2   
    38    15    22 1   
    39    15    38 1   
    40    17    18 1   
    41    18    19 1   
    42    21    39 1   
    43    21    41 1   
    44    30    41 1   
@<TRIPOS>SUBSTRUCTURE
     1 P41         1 TEMP              0 ****  ****    0 ROOT
