@<TRIPOS>MOLECULE
P42
  140   139     1     0     0
SMALL
abcg2


@<TRIPOS>ATOM
      1 C4          -2.3250    -3.7190    -2.1000 c3         1 P42       0.220600
      2 C5          -3.4170    -2.6750    -2.0200 c3         1 P42       0.081600
      3 C6          -2.7300    -1.5270    -4.0960 c3         1 P42       0.070900
      4 C7          -4.4690    -0.6090    -2.6760 c3         1 P42       0.070900
      5 C8          -2.1600    -0.5230    -1.9590 c3         1 P42       0.070900
      6 CBX        -20.8040     5.0960    -1.6640 c3         1 P42      -0.088100
      7 CBV        -19.8140     4.5830    -0.6280 c3         1 P42      -0.075400
      8 CBS        -18.4300     4.3160    -1.2070 c3         1 P42      -0.075400
      9 CBH        -17.4310     3.8110    -0.1740 c3         1 P42      -0.074400
     10 CAQ        -16.0520     3.5260    -0.7540 c3         1 P42      -0.074400
     11 CAP        -15.0560     3.0210     0.2830 c3         1 P42      -0.074400
     12 CAO        -13.6760     2.7300    -0.2950 c3         1 P42      -0.074400
     13 CAN        -12.6830     2.2240     0.7440 c3         1 P42      -0.074400
     14 CAM        -11.3040     1.9290     0.1670 c3         1 P42      -0.073400
     15 CAL        -10.3120     1.4220     1.2070 c3         1 P42      -0.075400
     16 CAK         -8.9350     1.1200     0.6300 c3         1 P42      -0.073400
     17 CAJ         -7.9420     0.6150     1.6700 c3         1 P42      -0.076400
     18 CAI         -6.5670     0.3120     1.0900 c3         1 P42      -0.071400
     19 CAH         -5.5680    -0.1890     2.1250 c3         1 P42      -0.080400
     20 CAG         -4.2080    -0.5140     1.5240 c3         1 P42      -0.070400
     21 CAE         -1.8430    -1.3170     1.8820 c3         1 P42      -0.113400
     22 CAD         -0.8550    -2.0120     2.8010 c3         1 P42       0.387300
     23 OAA         -0.6070    -1.3070     3.9840 oh         1 P42      -0.683000
     24 CAB          1.2030    -3.1710     2.5940 c3         1 P42       0.174600
     25 CBE          2.1860    -3.6190     1.5290 c3         1 P42       0.180300
     26 CBK          1.5040    -4.2220     0.2960 c3         1 P42       0.211600
     27 OBL          1.1410    -3.1980    -0.6060 os         1 P42      -0.568400
     28 PBM          0.2910    -3.5410    -1.9420 p5         1 P42       1.380800
     29 OBF          0.4850    -2.3970    -2.8940 o          1 P42      -0.814500
     30 OBU          0.5030    -4.9540    -2.3900 o          1 P42      -0.814500
     31 OBN         -1.2240    -3.4110    -1.2830 os         1 P42      -0.590400
     32 OBD          3.0200    -2.5250     1.2180 os         1 P42      -0.466000
     33 CBC          4.3100    -2.8170     0.7660 c3         1 P42       0.393300
     34 OBJ          4.3190    -3.3840    -0.5120 oh         1 P42      -0.678000
     35 CBB          5.1080    -1.5250     0.8450 c3         1 P42      -0.105400
     36 CBA          6.5580    -1.6790     0.4030 c3         1 P42      -0.070400
     37 CAZ          7.3580    -0.3980     0.6010 c3         1 P42      -0.075400
     38 CAY          8.8150    -0.5230     0.1770 c3         1 P42      -0.074400
     39 CAX          9.6100     0.7580     0.3950 c3         1 P42      -0.074400
     40 CAW         11.0730     0.6430    -0.0140 c3         1 P42      -0.074400
     41 CAV         11.8630     1.9240     0.2220 c3         1 P42      -0.074400
     42 CAU         13.3300     1.8140    -0.1710 c3         1 P42      -0.074400
     43 CAT         14.1150     3.0960     0.0760 c3         1 P42      -0.074400
     44 CAS         15.5870     2.9860    -0.3010 c3         1 P42      -0.074400
     45 CAR         16.3700     4.2680    -0.0440 c3         1 P42      -0.074400
     46 CBI         17.8450     4.1590    -0.4070 c3         1 P42      -0.074400
     47 CBT         18.6260     5.4390    -0.1420 c3         1 P42      -0.075400
     48 CBW         20.1050     5.3290    -0.4930 c3         1 P42      -0.074400
     49 CBY         20.8750     6.6130    -0.2210 c3         1 P42      -0.088100
     50 H4          -2.7980    -4.6430    -1.7520 h1         1 P42       0.052200
     51 H4A         -2.0510    -3.9020    -3.1440 h1         1 P42       0.052200
     52 H5          -4.3040    -3.0890    -2.4980 hx         1 P42       0.078200
     53 H5A         -3.6680    -2.4630    -0.9810 hx         1 P42       0.078200
     54 H6          -2.7380    -0.5600    -4.5930 hx         1 P42       0.096033
     55 H6A         -3.4140    -2.2020    -4.6040 hx         1 P42       0.096033
     56 H6B         -1.7200    -1.9270    -4.1070 hx         1 P42       0.096033
     57 H7          -5.2030    -1.1610    -3.2560 hx         1 P42       0.096033
     58 H7A         -4.3250     0.3780    -3.1090 hx         1 P42       0.096033
     59 H7B         -4.8170    -0.5070    -1.6500 hx         1 P42       0.096033
     60 H8          -2.1150     0.4550    -2.4310 hx         1 P42       0.096033
     61 H8A         -1.1870    -0.9980    -2.0140 hx         1 P42       0.096033
     62 H8B         -2.4700    -0.4070    -0.9250 hx         1 P42       0.096033
     63 HBX        -20.4730     6.0420    -2.0950 hc         1 P42       0.031700
     64 HBXA       -20.9210     4.3850    -2.4840 hc         1 P42       0.031700
     65 HBV        -19.7300     5.3070     0.1890 hc         1 P42       0.036700
     66 HBS        -18.5140     3.5860    -2.0200 hc         1 P42       0.036700
     67 HBSA       -18.0470     5.2350    -1.6650 hc         1 P42       0.036700
     68 HBH        -17.3400     4.5460     0.6330 hc         1 P42       0.037200
     69 HBHA       -17.8220     2.8980     0.2910 hc         1 P42       0.037200
     70 HAQ        -16.1420     2.7900    -1.5600 hc         1 P42       0.036700
     71 HAQA       -15.6600     4.4380    -1.2200 hc         1 P42       0.036700
     72 HAP        -14.9630     3.7590     1.0870 hc         1 P42       0.037700
     73 HAPA       -15.4500     2.1120     0.7510 hc         1 P42       0.037700
     74 HAO        -13.7690     1.9920    -1.0990 hc         1 P42       0.036700
     75 HAOA       -13.2810     3.6390    -0.7630 hc         1 P42       0.036700
     76 HAN        -12.5890     2.9630     1.5470 hc         1 P42       0.038700
     77 HANA       -13.0800     1.3170     1.2130 hc         1 P42       0.038700
     78 HAM        -11.3980     1.1890    -0.6360 hc         1 P42       0.036200
     79 HAL        -10.2150     2.1640     2.0080 hc         1 P42       0.040200
     80 HAK         -9.0320     0.3780    -0.1700 hc         1 P42       0.033200
     81 HAKA        -8.5350     2.0240     0.1560 hc         1 P42       0.033200
     82 HAJ         -7.8430     1.3580     2.4690 hc         1 P42       0.043700
     83 HAJA        -8.3410    -0.2880     2.1440 hc         1 P42       0.043700
     84 HAI         -6.6680    -0.4340     0.2920 hc         1 P42       0.025700
     85 HAIA        -6.1690     1.2140     0.6110 hc         1 P42       0.025700
     86 HAH         -5.4480     0.5630     2.9120 hc         1 P42       0.047200
     87 HAG         -4.3420    -1.2710     0.7410 hc         1 P42       0.019200
     88 HAF         -3.0720    -0.2940     3.3360 hc         1 P42       0.049700
     89 HAFA        -3.5760    -1.9390     3.0010 hc         1 P42       0.049700
     90 HAE         -1.9830    -1.9650     1.0120 hc         1 P42       0.059200
     91 HAEA        -1.4000    -0.3860     1.5090 hc         1 P42       0.059200
     92 HAD         -1.2730    -2.9740     3.1320 h2         1 P42       0.055700
     93 HOAA        -0.3810    -0.3960     3.7620 ho         1 P42       0.447000
     94 HAB          1.7580    -2.7670     3.4490 h1         1 P42       0.027200
     95 HABA         0.6650    -4.0600     2.9510 h1         1 P42       0.027200
     96 HBE          2.7740    -4.4260     1.9920 h1         1 P42       0.029700
     97 HBK          2.1800    -4.9280    -0.1880 h1         1 P42       0.031700
     98 HBKA         0.6320    -4.7930     0.6340 h1         1 P42       0.031700
     99 HBC          4.7710    -3.5800     1.4090 h2         1 P42       0.045700
    100 HOBJ         3.9540    -2.7460    -1.1370 ho         1 P42       0.465000
    101 HBB          4.6140    -0.7550     0.2390 hc         1 P42       0.053200
    102 HBBA         5.0810    -1.1690     1.8790 hc         1 P42       0.053200
    103 HBA          7.0300    -2.4900     0.9680 hc         1 P42       0.044200
    104 HAZ          6.8850     0.4170     0.0410 hc         1 P42       0.035700
    105 HAY          9.2860    -1.3420     0.7310 hc         1 P42       0.038700
    106 HAYA         8.8640    -0.8060    -0.8810 hc         1 P42       0.038700
    107 HAX          9.1410     1.5770    -0.1620 hc         1 P42       0.036200
    108 HAXA         9.5520     1.0420     1.4520 hc         1 P42       0.036200
    109 HAW         11.5410    -0.1790     0.5390 hc         1 P42       0.037200
    110 HAWA        11.1350     0.3670    -1.0730 hc         1 P42       0.037200
    111 HAV         11.3980     2.7450    -0.3370 hc         1 P42       0.036200
    112 HAVA        11.7910     2.2030     1.2790 hc         1 P42       0.036200
    113 HAU         13.7940     0.9920     0.3860 hc         1 P42       0.037200
    114 HAUA        13.4050     1.5400    -1.2290 hc         1 P42       0.037200
    115 HAT         13.6560     3.9170    -0.4860 hc         1 P42       0.036700
    116 HATA        14.0320     3.3720     1.1330 hc         1 P42       0.036700
    117 HAS         16.0450     2.1630     0.2600 hc         1 P42       0.037200
    118 HAR         15.9160     5.0900    -0.6090 hc         1 P42       0.036700
    119 HBI         18.2970     3.3340     0.1570 hc         1 P42       0.036700
    120 HBIA        17.9400     3.8870    -1.4640 hc         1 P42       0.036700
    121 HBT         18.1790     6.2630    -0.7100 hc         1 P42       0.036700
    122 HBTA        18.5260     5.7130     0.9150 hc         1 P42       0.036700
    123 HBW         20.5500     4.5060     0.0740 hc         1 P42       0.036700
    124 HBY         21.9280     6.5150    -0.4880 hc         1 P42       0.031033
    125 HBYA        20.4660     7.4470    -0.7940 hc         1 P42       0.031033
    126 N           -3.1720    -1.3430    -2.6860 n4         1 P42      -0.483000
    127 H77        -21.7910     5.2600    -1.2280 hc         1 P42       0.031700
    128 H78        -20.2000     3.6630    -0.1780 hc         1 P42       0.036700
    129 H79        -10.9060     2.8350    -0.3020 hc         1 P42       0.036200
    130 H80        -10.7120     0.5180     1.6790 hc         1 P42       0.040200
    131 H81         -5.9680    -1.0830     2.6170 hc         1 P42       0.047200
    132 H82         -3.8120     0.3780     1.0240 hc         1 P42       0.019200
    133 H83          6.6000    -1.9740    -0.6490 hc         1 P42       0.044200
    134 H84          7.3120    -0.1030     1.6550 hc         1 P42       0.035700
    135 H85         15.6730     2.7140    -1.3590 hc         1 P42       0.037200
    136 H86         16.2760     4.5430     1.0130 hc         1 P42       0.036700
    137 H87         20.2060     5.0570    -1.5480 hc         1 P42       0.036700
    138 H88         20.8270     6.8860     0.8350 hc         1 P42       0.031033
    139 OAC          0.3080    -2.2290     2.0590 os         1 P42      -0.451000
    140 CAF         -3.1890    -1.0270     2.5330 c3         1 P42      -0.074400
@<TRIPOS>BOND
     1     1     2 1   
     2     1    31 1   
     3     1    50 1   
     4     1    51 1   
     5     2    52 1   
     6     2    53 1   
     7     2   126 1   
     8     3    54 1   
     9     3    55 1   
    10     3    56 1   
    11     3   126 1   
    12     4    57 1   
    13     4    58 1   
    14     4    59 1   
    15     4   126 1   
    16     5    60 1   
    17     5    61 1   
    18     5    62 1   
    19     5   126 1   
    20     6     7 1   
    21     6    63 1   
    22     6    64 1   
    23     6   127 1   
    24     7     8 1   
    25     7    65 1   
    26     7   128 1   
    27     8     9 1   
    28     8    66 1   
    29     8    67 1   
    30     9    10 1   
    31     9    68 1   
    32     9    69 1   
    33    10    11 1   
    34    10    70 1   
    35    10    71 1   
    36    11    12 1   
    37    11    72 1   
    38    11    73 1   
    39    12    13 1   
    40    12    74 1   
    41    12    75 1   
    42    13    14 1   
    43    13    76 1   
    44    13    77 1   
    45    14    15 1   
    46    14    78 1   
    47    14   129 1   
    48    15    16 1   
    49    15    79 1   
    50    15   130 1   
    51    16    17 1   
    52    16    80 1   
    53    16    81 1   
    54    17    18 1   
    55    17    82 1   
    56    17    83 1   
    57    18    19 1   
    58    18    84 1   
    59    18    85 1   
    60    19    20 1   
    61    19    86 1   
    62    19   131 1   
    63    20    87 1   
    64    20   132 1   
    65    20   140 1   
    66    21    22 1   
    67    21    90 1   
    68    21    91 1   
    69    21   140 1   
    70    22    23 1   
    71    22    92 1   
    72    22   139 1   
    73    23    93 1   
    74    24    25 1   
    75    24    94 1   
    76    24    95 1   
    77    24   139 1   
    78    25    26 1   
    79    25    32 1   
    80    25    96 1   
    81    26    27 1   
    82    26    97 1   
    83    26    98 1   
    84    27    28 1   
    85    28    29 1   
    86    28    30 1   
    87    28    31 1   
    88    32    33 1   
    89    33    34 1   
    90    33    35 1   
    91    33    99 1   
    92    34   100 1   
    93    35    36 1   
    94    35   101 1   
    95    35   102 1   
    96    36    37 1   
    97    36   103 1   
    98    36   133 1   
    99    37    38 1   
   100    37   104 1   
   101    37   134 1   
   102    38    39 1   
   103    38   105 1   
   104    38   106 1   
   105    39    40 1   
   106    39   107 1   
   107    39   108 1   
   108    40    41 1   
   109    40   109 1   
   110    40   110 1   
   111    41    42 1   
   112    41   111 1   
   113    41   112 1   
   114    42    43 1   
   115    42   113 1   
   116    42   114 1   
   117    43    44 1   
   118    43   115 1   
   119    43   116 1   
   120    44    45 1   
   121    44   117 1   
   122    44   135 1   
   123    45    46 1   
   124    45   118 1   
   125    45   136 1   
   126    46    47 1   
   127    46   119 1   
   128    46   120 1   
   129    47    48 1   
   130    47   121 1   
   131    47   122 1   
   132    48    49 1   
   133    48   123 1   
   134    48   137 1   
   135    49   124 1   
   136    49   125 1   
   137    49   138 1   
   138    88   140 1   
   139    89   140 1   
@<TRIPOS>SUBSTRUCTURE
     1 P42         1 TEMP              0 ****  ****    0 ROOT
