@<TRIPOS>MOLECULE
P42
  140   139     1     0     0
SMALL
No Charge or Current Charge


@<TRIPOS>ATOM
      1 C4          -2.1760    -4.0720    -1.7520 c3         1 P42       0.220600
      2 C5          -3.3520    -3.0590    -1.6830 c3         1 P42       0.081600
      3 C6          -2.8870    -1.9740    -3.9250 c3         1 P42       0.070900
      4 C7          -4.6720    -1.0670    -2.4430 c3         1 P42       0.070900
      5 C8          -2.2800    -0.7640    -1.8160 c3         1 P42       0.070900
      6 CBX        -21.1820     5.2400    -1.6170 c3         1 P42      -0.088100
      7 CBV        -20.1540     4.7620    -0.5740 c3         1 P42      -0.075400
      8 CBS        -18.7830     4.4130    -1.1930 c3         1 P42      -0.075400
      9 CBH        -17.7520     3.9330    -0.1470 c3         1 P42      -0.074400
     10 CAQ        -16.3810     3.5840    -0.7660 c3         1 P42      -0.074400
     11 CAP        -15.3500     3.1050     0.2790 c3         1 P42      -0.074400
     12 CAO        -13.9790     2.7560    -0.3400 c3         1 P42      -0.074400
     13 CAN        -12.9480     2.2760     0.7050 c3         1 P42      -0.074400
     14 CAM        -11.5770     1.9270     0.0860 c3         1 P42      -0.073400
     15 CAL        -10.5460     1.4480     1.1320 c3         1 P42      -0.075400
     16 CAK         -9.1750     1.0990     0.5130 c3         1 P42      -0.073400
     17 CAJ         -8.1440     0.6200     1.5580 c3         1 P42      -0.076400
     18 CAI         -6.7740     0.2710     0.9380 c3         1 P42      -0.071400
     19 CAH         -5.7420    -0.2100     1.9810 c3         1 P42      -0.080400
     20 CAG         -4.3760    -0.5550     1.3530 c3         1 P42      -0.070400
     21 CAE         -1.9730    -1.3800     1.7220 c3         1 P42      -0.113400
     22 CAD         -0.9530    -2.0530     2.6580 c3         1 P42       0.387300
     23 OAA         -0.5650    -1.1590     3.6900 oh         1 P42      -0.683000
     24 CAB          1.1400    -3.2530     2.4630 c3         1 P42       0.174600
     25 CBE          2.2850    -3.5730     1.4610 c3         1 P42       0.180300
     26 CBK          1.7930    -4.1800     0.1030 c3         1 P42       0.211600
     27 OBL          1.3960    -3.1460    -0.8170 os         1 P42      -0.568400
     28 PBM          0.3770    -3.5100    -2.0100 p5         1 P42       1.380800
     29 OBF          0.3840    -2.4540    -3.0610 o          1 P42      -0.814500
     30 OBU          0.6760    -4.8610    -2.5660 o          1 P42      -0.814500
     31 OBN         -0.9980    -3.4960    -1.1730 os         1 P42      -0.590400
     32 OBD          3.0990    -2.3750     1.2930 os         1 P42      -0.466000
     33 CBC          4.3030    -2.4930     0.5330 c3         1 P42       0.393300
     34 OBJ          3.9790    -2.3860    -0.8380 oh         1 P42      -0.678000
     35 CBB          5.2170    -1.3210     0.9480 c3         1 P42      -0.105400
     36 CBA          6.6290    -1.3690     0.3140 c3         1 P42      -0.070400
     37 CAZ          7.5380    -0.2100     0.7780 c3         1 P42      -0.075400
     38 CAY          8.9470    -0.2570     0.1480 c3         1 P42      -0.074400
     39 CAX          9.8560     0.9020     0.6120 c3         1 P42      -0.074400
     40 CAW         11.2650     0.8550    -0.0180 c3         1 P42      -0.074400
     41 CAV         12.1740     2.0140     0.4460 c3         1 P42      -0.074400
     42 CAU         13.5840     1.9660    -0.1830 c3         1 P42      -0.074400
     43 CAT         14.4930     3.1250     0.2810 c3         1 P42      -0.074400
     44 CAS         15.9020     3.0770    -0.3480 c3         1 P42      -0.074400
     45 CAR         16.8110     4.2360     0.1160 c3         1 P42      -0.074400
     46 CBI         18.2210     4.1890    -0.5140 c3         1 P42      -0.074400
     47 CBT         19.1300     5.3480    -0.0490 c3         1 P42      -0.075400
     48 CBW         20.5390     5.3000    -0.6780 c3         1 P42      -0.074400
     49 CBY         21.4460     6.4560    -0.2150 c3         1 P42      -0.088100
     50 H4          -2.4600    -4.9760    -1.1980 h1         1 P42       0.052200
     51 H4A         -2.0170    -4.3650    -2.7980 h1         1 P42       0.052200
     52 H5          -4.2390    -3.5820    -2.0450 hx         1 P42       0.078200
     53 H5A         -3.5250    -2.8130    -0.6340 hx         1 P42       0.078200
     54 H6          -2.8840    -1.0250    -4.4640 hx         1 P42       0.096033
     55 H6A         -3.6060    -2.6560    -4.3850 hx         1 P42       0.096033
     56 H6B         -1.8890    -2.4140    -3.9580 hx         1 P42       0.096033
     57 H7          -5.3980    -1.7390    -2.9060 hx         1 P42       0.096033
     58 H7A         -4.6350    -0.1290    -3.0000 hx         1 P42       0.096033
     59 H7B         -4.9660    -0.8660    -1.4110 hx         1 P42       0.096033
     60 H8          -2.2530     0.1680    -2.3850 hx         1 P42       0.096033
     61 H8A         -1.2900    -1.2190    -1.8150 hx         1 P42       0.096033
     62 H8B         -2.5890    -0.5580    -0.7910 hx         1 P42       0.096033
     63 HBX        -20.8260     6.1420    -2.1280 hc         1 P42       0.031700
     64 HBXA       -21.3620     4.4630    -2.3690 hc         1 P42       0.031700
     65 HBV        -20.0220     5.5460     0.1820 hc         1 P42       0.036700
     66 HBS        -18.9180     3.6300    -1.9500 hc         1 P42       0.036700
     67 HBSA       -18.3860     5.2950    -1.7110 hc         1 P42       0.036700
     68 HBH        -17.6160     4.7160     0.6100 hc         1 P42       0.037200
     69 HBHA       -18.1480     3.0510     0.3710 hc         1 P42       0.037200
     70 HAQ        -16.5160     2.8020    -1.5240 hc         1 P42       0.036700
     71 HAQA       -15.9840     4.4660    -1.2850 hc         1 P42       0.036700
     72 HAP        -15.2140     3.8870     1.0360 hc         1 P42       0.037700
     73 HAPA       -15.7460     2.2230     0.7970 hc         1 P42       0.037700
     74 HAO        -14.1140     1.9730    -1.0970 hc         1 P42       0.036700
     75 HAOA       -13.5820     3.6380    -0.8580 hc         1 P42       0.036700
     76 HAN        -12.8130     3.0590     1.4630 hc         1 P42       0.038700
     77 HANA       -13.3440     1.3940     1.2240 hc         1 P42       0.038700
     78 HAM        -11.7120     1.1450    -0.6710 hc         1 P42       0.036200
     79 HAL        -10.4110     2.2310     1.8890 hc         1 P42       0.040200
     80 HAK         -9.3100     0.3170    -0.2450 hc         1 P42       0.033200
     81 HAKA        -8.7790     1.9820    -0.0050 hc         1 P42       0.033200
     82 HAJ         -8.0080     1.4020     2.3150 hc         1 P42       0.043700
     83 HAJA        -8.5400    -0.2630     2.0760 hc         1 P42       0.043700
     84 HAI         -6.9110    -0.5100     0.1800 hc         1 P42       0.025700
     85 HAIA        -6.3770     1.1540     0.4200 hc         1 P42       0.025700
     86 HAH         -5.6030     0.5690     2.7410 hc         1 P42       0.047200
     87 HAG         -4.5250    -1.3260     0.5880 hc         1 P42       0.019200
     88 HAF         -3.2040    -0.3170     3.1640 hc         1 P42       0.049700
     89 HAFA        -3.7270    -1.9740     2.8560 hc         1 P42       0.049700
     90 HAE         -2.1400    -2.0560     0.8770 hc         1 P42       0.059200
     91 HAEA        -1.5430    -0.4580     1.3110 hc         1 P42       0.059200
     92 HAD         -1.3930    -2.9580     3.0970 h2         1 P42       0.055700
     93 HOAA         0.0390    -0.5270     3.2500 ho         1 P42       0.447000
     94 HAB          1.5710    -2.8120     3.3710 h1         1 P42       0.027200
     95 HABA         0.6510    -4.1940     2.7480 h1         1 P42       0.027200
     96 HBE          2.8960    -4.3460     1.9440 h1         1 P42       0.029700
     97 HBK          2.6080    -4.7740    -0.3320 h1         1 P42       0.031700
     98 HBKA         0.9620    -4.8700     0.3050 h1         1 P42       0.031700
     99 HBC          4.8060    -3.4500     0.7260 h2         1 P42       0.045700
    100 HOBJ         3.0000    -2.5330    -0.8490 ho         1 P42       0.465000
    101 HBB          4.7310    -0.3730     0.6870 hc         1 P42       0.053200
    102 HBBA         5.3220    -1.3340     2.0400 hc         1 P42       0.053200
    103 HBA          7.1040    -2.3240     0.5690 hc         1 P42       0.044200
    104 HAZ          7.0620     0.7460     0.5230 hc         1 P42       0.035700
    105 HAY          9.4240    -1.2120     0.4020 hc         1 P42       0.038700
    106 HAYA         8.8540    -0.2260    -0.9450 hc         1 P42       0.038700
    107 HAX          9.3800     1.8570     0.3580 hc         1 P42       0.036200
    108 HAXA         9.9490     0.8710     1.7050 hc         1 P42       0.036200
    109 HAW         11.7420    -0.1010     0.2360 hc         1 P42       0.037200
    110 HAWA        11.1720     0.8860    -1.1110 hc         1 P42       0.037200
    111 HAV         11.6980     2.9690     0.1920 hc         1 P42       0.036200
    112 HAVA        12.2670     1.9830     1.5390 hc         1 P42       0.036200
    113 HAU         14.0600     1.0110     0.0710 hc         1 P42       0.037200
    114 HAUA        13.4910     1.9970    -1.2760 hc         1 P42       0.037200
    115 HAT         14.0170     4.0800     0.0270 hc         1 P42       0.036700
    116 HATA        14.5850     3.0940     1.3740 hc         1 P42       0.036700
    117 HAS         16.3780     2.1220    -0.0940 hc         1 P42       0.037200
    118 HAR         16.3350     5.1920    -0.1390 hc         1 P42       0.036700
    119 HBI         18.6970     3.2330    -0.2590 hc         1 P42       0.036700
    120 HBIA        18.1280     4.2190    -1.6060 hc         1 P42       0.036700
    121 HBT         18.6540     6.3030    -0.3040 hc         1 P42       0.036700
    122 HBTA        19.2220     5.3170     1.0440 hc         1 P42       0.036700
    123 HBW         21.0190     4.3470    -0.4240 hc         1 P42       0.036700
    124 HBY         22.4330     6.3800    -0.6870 hc         1 P42       0.031033
    125 HBYA        21.0100     7.4250    -0.4870 hc         1 P42       0.031033
    126 N           -3.2860    -1.7240    -2.4640 n4         1 P42      -0.483000
    127 H77        -22.1370     5.4760    -1.1310 hc         1 P42       0.031700
    128 H78        -20.5540     3.8820    -0.0560 hc         1 P42       0.036700
    129 H79        -11.1810     2.8100    -0.4320 hc         1 P42       0.036200
    130 H80        -10.9420     0.5660     1.6500 hc         1 P42       0.040200
    131 H81         -6.1360    -1.0950     2.4970 hc         1 P42       0.047200
    132 H82         -3.9780     0.3320     0.8460 hc         1 P42       0.019200
    133 H83          6.5390    -1.3380    -0.7790 hc         1 P42       0.044200
    134 H84          7.6320    -0.2400     1.8710 hc         1 P42       0.035700
    135 H85         15.8100     3.1080    -1.4410 hc         1 P42       0.037200
    136 H86         16.9040     4.2060     1.2090 hc         1 P42       0.036700
    137 H87         20.4510     5.3320    -1.7720 hc         1 P42       0.036700
    138 H88         21.5830     6.4300     0.8720 hc         1 P42       0.031033
    139 OAC          0.1850    -2.3600     1.8600 os         1 P42      -0.451000
    140 CAF         -3.3390    -1.0670     2.3750 c3         1 P42      -0.074400
@<TRIPOS>BOND
     1     1     2 1   
     2     1    31 1   
     3     1    50 1   
     4     1    51 1   
     5     2    52 1   
     6     2    53 1   
     7     2   126 1   
     8     3    54 1   
     9     3    55 1   
    10     3    56 1   
    11     3   126 1   
    12     4    57 1   
    13     4    58 1   
    14     4    59 1   
    15     4   126 1   
    16     5    60 1   
    17     5    61 1   
    18     5    62 1   
    19     5   126 1   
    20     6     7 1   
    21     6    63 1   
    22     6    64 1   
    23     6   127 1   
    24     7     8 1   
    25     7    65 1   
    26     7   128 1   
    27     8     9 1   
    28     8    66 1   
    29     8    67 1   
    30     9    10 1   
    31     9    68 1   
    32     9    69 1   
    33    10    11 1   
    34    10    70 1   
    35    10    71 1   
    36    11    12 1   
    37    11    72 1   
    38    11    73 1   
    39    12    13 1   
    40    12    74 1   
    41    12    75 1   
    42    13    14 1   
    43    13    76 1   
    44    13    77 1   
    45    14    15 1   
    46    14    78 1   
    47    14   129 1   
    48    15    16 1   
    49    15    79 1   
    50    15   130 1   
    51    16    17 1   
    52    16    80 1   
    53    16    81 1   
    54    17    18 1   
    55    17    82 1   
    56    17    83 1   
    57    18    19 1   
    58    18    84 1   
    59    18    85 1   
    60    19    20 1   
    61    19    86 1   
    62    19   131 1   
    63    20    87 1   
    64    20   132 1   
    65    20   140 1   
    66    21    22 1   
    67    21    90 1   
    68    21    91 1   
    69    21   140 1   
    70    22    23 1   
    71    22    92 1   
    72    22   139 1   
    73    23    93 1   
    74    24    25 1   
    75    24    94 1   
    76    24    95 1   
    77    24   139 1   
    78    25    26 1   
    79    25    32 1   
    80    25    96 1   
    81    26    27 1   
    82    26    97 1   
    83    26    98 1   
    84    27    28 1   
    85    28    29 1   
    86    28    30 1   
    87    28    31 1   
    88    32    33 1   
    89    33    34 1   
    90    33    35 1   
    91    33    99 1   
    92    34   100 1   
    93    35    36 1   
    94    35   101 1   
    95    35   102 1   
    96    36    37 1   
    97    36   103 1   
    98    36   133 1   
    99    37    38 1   
   100    37   104 1   
   101    37   134 1   
   102    38    39 1   
   103    38   105 1   
   104    38   106 1   
   105    39    40 1   
   106    39   107 1   
   107    39   108 1   
   108    40    41 1   
   109    40   109 1   
   110    40   110 1   
   111    41    42 1   
   112    41   111 1   
   113    41   112 1   
   114    42    43 1   
   115    42   113 1   
   116    42   114 1   
   117    43    44 1   
   118    43   115 1   
   119    43   116 1   
   120    44    45 1   
   121    44   117 1   
   122    44   135 1   
   123    45    46 1   
   124    45   118 1   
   125    45   136 1   
   126    46    47 1   
   127    46   119 1   
   128    46   120 1   
   129    47    48 1   
   130    47   121 1   
   131    47   122 1   
   132    48    49 1   
   133    48   123 1   
   134    48   137 1   
   135    49   124 1   
   136    49   125 1   
   137    49   138 1   
   138    88   140 1   
   139    89   140 1   
@<TRIPOS>SUBSTRUCTURE
     1 P42         1 TEMP              0 ****  ****    0 ROOT
