@<TRIPOS>MOLECULE
P43
   53    56     1     0     0
SMALL
abcg2


@<TRIPOS>ATOM
      1 C1          -3.3970    -0.9880     0.1450 cg         1 P43      -0.192000
      2 C2           3.6920     2.1310     2.0640 ca         1 P43      -0.113000
      3 C3           3.1960     0.9900     1.4550 ca         1 P43      -0.101000
      4 C4           3.6450     0.6120     0.1880 ca         1 P43      -0.082300
      5 C5           4.5900     1.4100    -0.4450 ca         1 P43      -0.080000
      6 C6           5.1060     2.5570     0.1580 ca         1 P43      -0.088300
      7 C7           4.6440     2.9130     1.4190 ca         1 P43      -0.109000
      8 C8           6.1510     3.3830    -0.5470 c3         1 P43       0.196100
      9 N9           5.7200     3.7480    -1.8880 n8         1 P43      -0.997200
     10 C10          3.1210    -0.6330    -0.4830 c6         1 P43      -0.014400
     11 C11          3.3810    -1.8890     0.3540 c6         1 P43      -0.088900
     12 C12          2.8020    -3.1380    -0.2980 c6         1 P43       0.101500
     13 N13          1.3840    -2.9450    -0.5580 n          1 P43      -0.401800
     14 C14          1.1280    -1.8180    -1.4420 c6         1 P43       0.101500
     15 C15          1.6320    -0.5230    -0.8240 c6         1 P43      -0.088900
     16 C16          0.4800    -3.8190    -0.0810 c          1 P43       0.545600
     17 O17          0.7780    -4.9030     0.4090 o          1 P43      -0.592100
     18 C18         -0.9590    -3.4740    -0.1240 cc         1 P43       0.076500
     19 O19         -1.3790    -2.2010     0.0120 os         1 P43      -0.215000
     20 C20         -2.7300    -2.2160     0.0150 cc         1 P43       0.265000
     21 C21         -3.1810    -3.4980    -0.1170 cd         1 P43      -0.161000
     22 C22         -2.0280    -4.3130    -0.1940 cd         1 P43      -0.122000
     23 C23         -3.9710     0.0670     0.2630 ch         1 P43      -0.060000
     24 C24         -4.6620     1.2970     0.3980 ca         1 P43      -0.021000
     25 C25         -6.0550     1.3480     0.5270 ca         1 P43      -0.060000
     26 C26         -6.7030     2.5630     0.6550 ca         1 P43      -0.130000
     27 C27         -5.9730     3.7470     0.6580 ca         1 P43      -0.072000
     28 C28         -4.5900     3.7210     0.5310 ca         1 P43      -0.155000
     29 C29         -3.9620     2.5010     0.4030 ca         1 P43       0.197000
     30 F30         -2.6320     2.4540     0.2770 f          1 P43      -0.166000
     31 H2           3.3350     2.4160     3.0460 ha         1 P43       0.112000
     32 H3           2.4580     0.3910     1.9750 ha         1 P43       0.114000
     33 H7           5.0280     3.8040     1.9030 ha         1 P43       0.108000
     34 H5           4.9390     1.1360    -1.4340 ha         1 P43       0.123000
     35 H10          3.6620    -0.7530    -1.4300 hc         1 P43       0.049700
     36 H81C         6.4130     4.2400     0.0870 h1         1 P43       0.033700
     37 H82C         7.0650     2.7890    -0.6430 h1         1 P43       0.033700
     38 H91N         4.9620     4.4160    -1.8270 hn         1 P43       0.395500
     39 H92N         6.4750     4.2240    -2.3640 hn         1 P43       0.395500
     40 H111         4.4560    -2.0280     0.4920 hc         1 P43       0.056200
     41 H112         2.9430    -1.7760     1.3500 hc         1 P43       0.056200
     42 H121         3.3120    -3.3440    -1.2460 h1         1 P43       0.055950
     43 H122         2.9430    -4.0040     0.3430 h1         1 P43       0.055950
     44 H141         1.6660    -2.0100    -2.3770 h1         1 P43       0.055950
     45 H142         0.0780    -1.7480    -1.7060 h1         1 P43       0.055950
     46 H151         1.0490    -0.2980     0.0730 hc         1 P43       0.056200
     47 H152         1.4710     0.2960    -1.5290 hc         1 P43       0.056200
     48 H22         -1.9920    -5.3850    -0.2970 ha         1 P43       0.158000
     49 H21         -4.2130    -3.8080    -0.1510 ha         1 P43       0.150000
     50 H25         -6.6180     0.4240     0.5250 ha         1 P43       0.125000
     51 H26         -7.7790     2.5890     0.7520 ha         1 P43       0.122000
     52 H27         -6.4790     4.6970     0.7600 ha         1 P43       0.120000
     53 H28         -4.0090     4.6330     0.5300 ha         1 P43       0.136000
@<TRIPOS>BOND
     1     1    20 1   
     2     1    23 3   
     3     2     3 ar  
     4     2     7 ar  
     5     2    31 1   
     6     3     4 ar  
     7     3    32 1   
     8     4     5 ar  
     9     4    10 1   
    10     5     6 ar  
    11     5    34 1   
    12     6     7 ar  
    13     6     8 1   
    14     7    33 1   
    15     8     9 1   
    16     8    36 1   
    17     8    37 1   
    18     9    38 1   
    19     9    39 1   
    20    10    11 1   
    21    10    15 1   
    22    10    35 1   
    23    11    12 1   
    24    11    40 1   
    25    11    41 1   
    26    12    13 1   
    27    12    42 1   
    28    12    43 1   
    29    13    14 1   
    30    13    16 1   
    31    14    15 1   
    32    14    44 1   
    33    14    45 1   
    34    15    46 1   
    35    15    47 1   
    36    16    17 2   
    37    16    18 1   
    38    18    19 1   
    39    18    22 2   
    40    19    20 1   
    41    20    21 2   
    42    21    22 1   
    43    21    49 1   
    44    22    48 1   
    45    23    24 1   
    46    24    25 ar  
    47    24    29 ar  
    48    25    26 ar  
    49    25    50 1   
    50    26    27 ar  
    51    26    51 1   
    52    27    28 ar  
    53    27    52 1   
    54    28    29 ar  
    55    28    53 1   
    56    29    30 1   
@<TRIPOS>SUBSTRUCTURE
     1 P43         1 TEMP              0 ****  ****    0 ROOT
