@<TRIPOS>MOLECULE
P43
   53    56     1     0     0
SMALL
No Charge or Current Charge


@<TRIPOS>ATOM
      1 C1          -4.0230    -1.1370    -0.0130 cg         1 P43      -0.192000
      2 C2           4.7380     2.3860     1.9570 ca         1 P43      -0.113000
      3 C3           3.9520     1.3120     1.5070 ca         1 P43      -0.101000
      4 C4           4.1990     0.7270     0.2470 ca         1 P43      -0.082300
      5 C5           5.2450     1.2350    -0.5520 ca         1 P43      -0.080000
      6 C6           6.0370     2.3120    -0.1050 ca         1 P43      -0.088300
      7 C7           5.7780     2.8850     1.1550 ca         1 P43      -0.109000
      8 C8           7.1700     2.8430    -0.9740 c3         1 P43       0.196100
      9 N9           6.6840     3.8380    -1.9480 n8         1 P43      -0.997200
     10 C10          3.3490    -0.4480    -0.2600 c6         1 P43      -0.014400
     11 C11          3.4580    -1.6850     0.6560 c6         1 P43      -0.088900
     12 C12          2.6220    -2.8680     0.1140 c6         1 P43       0.101500
     13 N13          1.1930    -2.5330    -0.1730 n          1 P43      -0.401800
     14 C14          1.0230    -1.2560    -0.9420 c6         1 P43       0.101500
     15 C15          1.8570    -0.0740    -0.3950 c6         1 P43      -0.088900
     16 C16          0.2660    -3.6070    -0.2900 c          1 P43       0.545600
     17 O17          0.6670    -4.7670    -0.3040 o          1 P43      -0.592100
     18 C18         -1.2000    -3.2900    -0.3530 cc         1 P43       0.076500
     19 O19         -1.7730    -2.0550    -0.1120 os         1 P43      -0.215000
     20 C20         -3.1340    -2.2280    -0.1970 cc         1 P43       0.265000
     21 C21         -3.4250    -3.5360    -0.4610 cd         1 P43      -0.161000
     22 C22         -2.1930    -4.2180    -0.5490 cd         1 P43      -0.122000
     23 C23         -4.7350    -0.1580     0.1420 ch         1 P43      -0.060000
     24 C24         -5.5540     0.9970     0.3240 ca         1 P43      -0.021000
     25 C25         -6.9480     0.8470     0.4620 ca         1 P43      -0.060000
     26 C26         -7.7680     1.9760     0.6420 ca         1 P43      -0.130000
     27 C27         -7.2020     3.2610     0.6850 ca         1 P43      -0.072000
     28 C28         -5.8120     3.4180     0.5480 ca         1 P43      -0.155000
     29 C29         -4.9910     2.2920     0.3680 ca         1 P43       0.197000
     30 F30         -3.6540     2.4680     0.2390 f          1 P43      -0.166000
     31 H2           4.5420     2.8320     2.9300 ha         1 P43       0.112000
     32 H3           3.1520     0.9380     2.1400 ha         1 P43       0.114000
     33 H7           6.3820     3.7160     1.5130 ha         1 P43       0.108000
     34 H5           5.4470     0.7950    -1.5260 ha         1 P43       0.123000
     35 H10          3.7130    -0.7360    -1.2560 hc         1 P43       0.049700
     36 H81C         7.9350     3.3130    -0.3400 h1         1 P43       0.033700
     37 H82C         7.6420     2.0140    -1.5190 h1         1 P43       0.033700
     38 H91N         6.2930     4.6350    -1.4320 hn         1 P43       0.395500
     39 H92N         7.4900     4.2380    -2.4430 hn         1 P43       0.395500
     40 H111         4.5090    -1.9910     0.7490 hc         1 P43       0.056200
     41 H112         3.1140    -1.4400     1.6690 hc         1 P43       0.056200
     42 H121         3.0850    -3.2390    -0.8120 h1         1 P43       0.055950
     43 H122         2.6680    -3.6860     0.8480 h1         1 P43       0.055950
     44 H141         1.3310    -1.4460    -1.9800 h1         1 P43       0.055950
     45 H142        -0.0180    -0.9290    -0.9920 h1         1 P43       0.055950
     46 H151         1.4490     0.2310     0.5780 hc         1 P43       0.056200
     47 H152         1.7480     0.7910    -1.0630 hc         1 P43       0.056200
     48 H22         -2.0510    -5.2790    -0.7330 ha         1 P43       0.158000
     49 H21         -4.4170    -3.9610    -0.5700 ha         1 P43       0.150000
     50 H25         -7.3970    -0.1440     0.4300 ha         1 P43       0.125000
     51 H26         -8.8440     1.8530     0.7480 ha         1 P43       0.122000
     52 H27         -7.8380     4.1330     0.8240 ha         1 P43       0.120000
     53 H28         -5.3680     4.4090     0.5810 ha         1 P43       0.136000
@<TRIPOS>BOND
     1     1    20 1   
     2     1    23 3   
     3     2     3 ar  
     4     2     7 ar  
     5     2    31 1   
     6     3     4 ar  
     7     3    32 1   
     8     4     5 ar  
     9     4    10 1   
    10     5     6 ar  
    11     5    34 1   
    12     6     7 ar  
    13     6     8 1   
    14     7    33 1   
    15     8     9 1   
    16     8    36 1   
    17     8    37 1   
    18     9    38 1   
    19     9    39 1   
    20    10    11 1   
    21    10    15 1   
    22    10    35 1   
    23    11    12 1   
    24    11    40 1   
    25    11    41 1   
    26    12    13 1   
    27    12    42 1   
    28    12    43 1   
    29    13    14 1   
    30    13    16 1   
    31    14    15 1   
    32    14    44 1   
    33    14    45 1   
    34    15    46 1   
    35    15    47 1   
    36    16    17 2   
    37    16    18 1   
    38    18    19 1   
    39    18    22 2   
    40    19    20 1   
    41    20    21 2   
    42    21    22 1   
    43    21    49 1   
    44    22    48 1   
    45    23    24 1   
    46    24    25 ar  
    47    24    29 ar  
    48    25    26 ar  
    49    25    50 1   
    50    26    27 ar  
    51    26    51 1   
    52    27    28 ar  
    53    27    52 1   
    54    28    29 ar  
    55    28    53 1   
    56    29    30 1   
@<TRIPOS>SUBSTRUCTURE
     1 P43         1 TEMP              0 ****  ****    0 ROOT
