@<TRIPOS>MOLECULE
P44
   47    50     1     0     0
SMALL
abcg2


@<TRIPOS>ATOM
      1 N01         -3.1680    -2.1330    -0.4190 nc         1 P44      -0.606100
      2 C02         -2.7910    -3.3800    -0.5170 cd         1 P44       0.464500
      3 C03         -1.3920    -3.5350    -0.3680 cd         1 P44      -0.262300
      4 C04         -0.9030    -2.2430    -0.1620 cc         1 P44       0.259500
      5 N05         -2.0190    -1.4530    -0.2050 na         1 P44      -0.175600
      6 N06          0.3070    -1.7470     0.0410 nc         1 P44      -0.273000
      7 C07          0.3420    -0.4260     0.1960 cd         1 P44       0.448900
      8 N08         -0.7280     0.4100     0.1700 nd         1 P44      -0.353000
      9 C09         -1.9050    -0.1010    -0.0320 cc         1 P44       0.621400
     10 N10         -3.0480     0.5860    -0.0900 nu         1 P44      -0.922900
     11 C11         -3.2830     1.9620     0.0370 ca         1 P44       0.298000
     12 C12         -4.6190     2.3610    -0.0380 ca         1 P44      -0.138500
     13 C13         -4.9590     3.6980     0.0700 ca         1 P44      -0.085000
     14 C14         -3.9740     4.6590     0.2560 ca         1 P44      -0.125000
     15 C15         -2.6480     4.2590     0.3300 ca         1 P44      -0.085000
     16 C16         -2.2900     2.9210     0.2230 ca         1 P44      -0.138500
     17 N17          1.5180     0.1620     0.3940 nu         1 P44      -0.898100
     18 C18          2.7810    -0.5370     0.4870 c3         1 P44       0.234800
     19 C19          3.9460     0.4440     0.4610 c6         1 P44      -0.081700
     20 C20          5.2580    -0.2980     0.7180 c6         1 P44      -0.071900
     21 C21          6.4540     0.6480     0.6960 c6         1 P44      -0.073900
     22 C22          6.5230     1.4260    -0.6150 c6         1 P44      -0.076400
     23 C23          5.2170     2.1680    -0.8780 c6         1 P44      -0.073900
     24 C24          4.0270     1.2140    -0.8590 c6         1 P44      -0.071900
     25 C25         -0.6340    -4.7150    -0.4090 ch         1 P44       0.349700
     26 N26         -0.0110    -5.6870    -0.4410 n1         1 P44      -0.485000
     27 H02         -3.5150    -4.1590    -0.6930 h4         1 P44       0.055800
     28 HN10        -3.8720     0.0180    -0.2490 hn         1 P44       0.537000
     29 H12         -5.3970     1.6190    -0.1800 ha         1 P44       0.132000
     30 H13         -6.0000     3.9850     0.0100 ha         1 P44       0.117000
     31 H14         -4.2360     5.7050     0.3400 ha         1 P44       0.119000
     32 H15         -1.8680     4.9960     0.4740 ha         1 P44       0.117000
     33 H16         -1.2520     2.6390     0.2840 ha         1 P44       0.132000
     34 HN17         1.4990     1.1530     0.5750 hn         1 P44       0.509000
     35 H181         2.8150    -1.1330     1.4060 h1         1 P44       0.064200
     36 H182         2.8710    -1.2360    -0.3480 h1         1 P44       0.064200
     37 H19          3.8030     1.1670     1.2760 hc         1 P44       0.047700
     38 H201         5.2100    -0.8220     1.6770 hc         1 P44       0.043950
     39 H202         5.3880    -1.0680    -0.0520 hc         1 P44       0.043950
     40 H211         6.3700     1.3520     1.5300 hc         1 P44       0.040700
     41 H212         7.3770     0.0860     0.8530 hc         1 P44       0.040700
     42 H221         7.3620     2.1250    -0.5970 hc         1 P44       0.041700
     43 H222         6.7130     0.7290    -1.4380 hc         1 P44       0.041700
     44 H231         5.0750     2.9370    -0.1110 hc         1 P44       0.040700
     45 H232         5.2610     2.6900    -1.8370 hc         1 P44       0.040700
     46 H241         4.1260     0.4920    -1.6790 hc         1 P44       0.043950
     47 H242         3.1030     1.7690    -1.0440 hc         1 P44       0.043950
@<TRIPOS>BOND
     1     1     2 2   
     2     1     5 1   
     3     2     3 1   
     4     2    27 1   
     5     3     4 2   
     6     3    25 1   
     7     4     5 1   
     8     4     6 1   
     9     5     9 1   
    10     6     7 2   
    11     7     8 1   
    12     7    17 1   
    13     8     9 2   
    14     9    10 1   
    15    10    11 1   
    16    10    28 1   
    17    11    12 ar  
    18    11    16 ar  
    19    12    13 ar  
    20    12    29 1   
    21    13    14 ar  
    22    13    30 1   
    23    14    15 ar  
    24    14    31 1   
    25    15    16 ar  
    26    15    32 1   
    27    16    33 1   
    28    17    18 1   
    29    17    34 1   
    30    18    19 1   
    31    18    35 1   
    32    18    36 1   
    33    19    20 1   
    34    19    24 1   
    35    19    37 1   
    36    20    21 1   
    37    20    38 1   
    38    20    39 1   
    39    21    22 1   
    40    21    40 1   
    41    21    41 1   
    42    22    23 1   
    43    22    42 1   
    44    22    43 1   
    45    23    24 1   
    46    23    44 1   
    47    23    45 1   
    48    24    46 1   
    49    24    47 1   
    50    25    26 3   
@<TRIPOS>SUBSTRUCTURE
     1 P44         1 TEMP              0 ****  ****    0 ROOT
