@<TRIPOS>MOLECULE
P44
   47    50     1     0     0
SMALL
No Charge or Current Charge


@<TRIPOS>ATOM
      1 N01         -3.3510    -2.2000    -0.5230 nc         1 P44      -0.606100
      2 C02         -2.9080    -3.4600    -0.5480 cd         1 P44       0.464500
      3 C03         -1.4970    -3.5740    -0.3790 cd         1 P44      -0.262300
      4 C04         -1.0390    -2.2980    -0.2400 cc         1 P44       0.259500
      5 N05         -2.1510    -1.5340    -0.3340 na         1 P44      -0.175600
      6 N06          0.2280    -1.8710    -0.0440 nc         1 P44      -0.273000
      7 C07          0.2940    -0.5470     0.0630 cd         1 P44       0.448900
      8 N08         -0.7630     0.3550    -0.0110 nd         1 P44      -0.353000
      9 C09         -1.9770    -0.1550    -0.2250 cc         1 P44       0.621400
     10 N10         -3.0930     0.6300    -0.3040 nu         1 P44      -0.922900
     11 C11         -3.3440     1.9820    -0.0830 ca         1 P44       0.298000
     12 C12         -4.5550     2.3610     0.5200 ca         1 P44      -0.138500
     13 C13         -4.8450     3.7180     0.7480 ca         1 P44      -0.085000
     14 C14         -3.9230     4.7060     0.3640 ca         1 P44      -0.125000
     15 C15         -2.7160     4.3370    -0.2520 ca         1 P44      -0.085000
     16 C16         -2.4300     2.9780    -0.4770 ca         1 P44      -0.138500
     17 N17          1.4970     0.0480     0.2710 nu         1 P44      -0.898100
     18 C18          2.8100    -0.6130     0.3730 c3         1 P44       0.234800
     19 C19          3.9730     0.4190     0.4460 c6         1 P44      -0.081700
     20 C20          5.3120    -0.2830     0.8130 c6         1 P44      -0.071900
     21 C21          6.4820     0.7290     0.9000 c6         1 P44      -0.073900
     22 C22          6.6310     1.5270    -0.4180 c6         1 P44      -0.076400
     23 C23          5.3060     2.2310    -0.7950 c6         1 P44      -0.073900
     24 C24          4.1360     1.2200    -0.8810 c6         1 P44      -0.071900
     25 C25         -0.7360    -4.7620    -0.3560 ch         1 P44       0.349700
     26 N26         -0.1310    -5.7590    -0.3420 n1         1 P44      -0.485000
     27 H02         -3.6210    -4.2630    -0.6870 h4         1 P44       0.055800
     28 HN10        -3.9100     0.0200    -0.3130 hn         1 P44       0.537000
     29 H12         -5.2730     1.6030     0.8220 ha         1 P44       0.132000
     30 H13         -5.7830     4.0030     1.2210 ha         1 P44       0.117000
     31 H14         -4.1470     5.7570     0.5390 ha         1 P44       0.119000
     32 H15         -2.0050     5.1010    -0.5580 ha         1 P44       0.117000
     33 H16         -1.5020     2.7060    -0.9700 ha         1 P44       0.132000
     34 HN17         1.4600     1.0640     0.3470 hn         1 P44       0.509000
     35 H181         2.8350    -1.2350     1.2800 h1         1 P44       0.064200
     36 H182         2.9750    -1.2770    -0.4880 h1         1 P44       0.064200
     37 H19          3.7230     1.1180     1.2560 hc         1 P44       0.047700
     38 H201         5.2110    -0.8050     1.7750 hc         1 P44       0.043950
     39 H202         5.5480    -1.0530     0.0650 hc         1 P44       0.043950
     40 H211         6.3100     1.4230     1.7350 hc         1 P44       0.040700
     41 H212         7.4180     0.1990     1.1220 hc         1 P44       0.040700
     42 H221         7.4340     2.2700    -0.3160 hc         1 P44       0.041700
     43 H222         6.9340     0.8490    -1.2290 hc         1 P44       0.041700
     44 H231         5.0730     3.0040    -0.0500 hc         1 P44       0.040700
     45 H232         5.4210     2.7510    -1.7570 hc         1 P44       0.040700
     46 H241         4.3120     0.5270    -1.7160 hc         1 P44       0.043950
     47 H242         3.2100     1.7600    -1.1190 hc         1 P44       0.043950
@<TRIPOS>BOND
     1     1     2 2   
     2     1     5 1   
     3     2     3 1   
     4     2    27 1   
     5     3     4 2   
     6     3    25 1   
     7     4     5 1   
     8     4     6 1   
     9     5     9 1   
    10     6     7 2   
    11     7     8 1   
    12     7    17 1   
    13     8     9 2   
    14     9    10 1   
    15    10    11 1   
    16    10    28 1   
    17    11    12 ar  
    18    11    16 ar  
    19    12    13 ar  
    20    12    29 1   
    21    13    14 ar  
    22    13    30 1   
    23    14    15 ar  
    24    14    31 1   
    25    15    16 ar  
    26    15    32 1   
    27    16    33 1   
    28    17    18 1   
    29    17    34 1   
    30    18    19 1   
    31    18    35 1   
    32    18    36 1   
    33    19    20 1   
    34    19    24 1   
    35    19    37 1   
    36    20    21 1   
    37    20    38 1   
    38    20    39 1   
    39    21    22 1   
    40    21    40 1   
    41    21    41 1   
    42    22    23 1   
    43    22    42 1   
    44    22    43 1   
    45    23    24 1   
    46    23    44 1   
    47    23    45 1   
    48    24    46 1   
    49    24    47 1   
    50    25    26 3   
@<TRIPOS>SUBSTRUCTURE
     1 P44         1 TEMP              0 ****  ****    0 ROOT
