@<TRIPOS>MOLECULE
P45
   41    44     1     0     0
SMALL
No Charge or Current Charge


@<TRIPOS>ATOM
      1 N01         -3.2930    -1.4070    -1.2320 nc         1 P45      -0.603100
      2 C02         -2.9810    -2.7060    -1.2140 cd         1 P45       0.465500
      3 C03         -1.7810    -2.9950    -0.5010 cd         1 P45      -0.261300
      4 C04         -1.3240    -1.7940    -0.0480 cc         1 P45       0.258500
      5 N05         -2.2310    -0.9000    -0.5020 na         1 P45      -0.173600
      6 N06         -0.2230    -1.5330     0.6900 nc         1 P45      -0.273000
      7 C07         -0.0970    -0.2350     0.9520 cd         1 P45       0.451900
      8 N08         -0.9550     0.7870     0.5560 nd         1 P45      -0.350000
      9 C09         -2.0090     0.4380    -0.1820 cc         1 P45       0.621400
     10 N10         -2.9270     1.3520    -0.6190 nu         1 P45      -0.919900
     11 C11         -3.1370     2.7070    -0.3750 ca         1 P45       0.296000
     12 C12         -4.4540     3.1860    -0.2740 ca         1 P45      -0.137500
     13 C13         -4.7020     4.5510    -0.0390 ca         1 P45      -0.085000
     14 C14         -3.6270     5.4460     0.0870 ca         1 P45      -0.124000
     15 C15         -2.3070     4.9780    -0.0260 ca         1 P45      -0.085000
     16 C16         -2.0650     3.6120    -0.2600 ca         1 P45      -0.137500
     17 N17          0.9600     0.2020     1.6860 nu         1 P45      -0.901100
     18 C18          2.1280    -0.5840     2.1180 c3         1 P45       0.287100
     19 C19          3.0620    -0.8380     0.9400 ca         1 P45      -0.122300
     20 C20          3.9060     0.1890     0.4690 ca         1 P45      -0.076500
     21 C21          4.7630    -0.0430    -0.6210 ca         1 P45      -0.108000
     22 C22          4.7810    -1.3000    -1.2460 ca         1 P45       0.129000
     23 C23          3.9430    -2.3270    -0.7830 ca         1 P45      -0.108000
     24 C24          3.0860    -2.0980     0.3070 ca         1 P45      -0.076500
     25 C25         -1.1910    -4.2620    -0.3030 ch         1 P45       0.349700
     26 N26         -0.7210    -5.3200    -0.1580 n1         1 P45      -0.486000
     27 Cl27         5.8520    -1.5880    -2.6110 cl         1 P45      -0.203000
     28 H02         -3.6320    -3.4090    -1.7180 h4         1 P45       0.056800
     29 HN10        -3.7140     0.8440    -1.0230 hn         1 P45       0.537000
     30 H12         -5.2910     2.4990    -0.3690 ha         1 P45       0.132000
     31 H13         -5.7250     4.9120     0.0440 ha         1 P45       0.118000
     32 H14         -3.8170     6.5020     0.2680 ha         1 P45       0.120000
     33 H15         -1.4740     5.6720     0.0630 ha         1 P45       0.118000
     34 H16         -1.0410     3.2660    -0.3640 ha         1 P45       0.132000
     35 HN17         0.9950     1.2140     1.8100 hn         1 P45       0.511000
     36 H181         2.6780    -0.0440     2.9020 h1         1 P45       0.067200
     37 H182         1.8080    -1.5420     2.5540 h1         1 P45       0.067200
     38 H20          3.8960     1.1670     0.9470 ha         1 P45       0.123500
     39 H21          5.4130     0.7510    -0.9820 ha         1 P45       0.132500
     40 H23          3.9580    -3.2990    -1.2700 ha         1 P45       0.132500
     41 H24          2.4380    -2.9000     0.6570 ha         1 P45       0.123500
@<TRIPOS>BOND
     1     1     2 2   
     2     1     5 1   
     3     2     3 1   
     4     2    28 1   
     5     3     4 2   
     6     3    25 1   
     7     4     5 1   
     8     4     6 1   
     9     5     9 1   
    10     6     7 2   
    11     7     8 1   
    12     7    17 1   
    13     8     9 2   
    14     9    10 1   
    15    10    11 1   
    16    10    29 1   
    17    11    12 ar  
    18    11    16 ar  
    19    12    13 ar  
    20    12    30 1   
    21    13    14 ar  
    22    13    31 1   
    23    14    15 ar  
    24    14    32 1   
    25    15    16 ar  
    26    15    33 1   
    27    16    34 1   
    28    17    18 1   
    29    17    35 1   
    30    18    19 1   
    31    18    36 1   
    32    18    37 1   
    33    19    20 ar  
    34    19    24 ar  
    35    20    21 ar  
    36    20    38 1   
    37    21    22 ar  
    38    21    39 1   
    39    22    23 ar  
    40    22    27 1   
    41    23    24 ar  
    42    23    40 1   
    43    24    41 1   
    44    25    26 3   
@<TRIPOS>SUBSTRUCTURE
     1 P45         1 TEMP              0 ****  ****    0 ROOT
