@<TRIPOS>MOLECULE
P45
   41    44     1     0     0
SMALL
bcc


@<TRIPOS>ATOM
      1 N01         -3.2150    -1.3780    -1.0030 nc         1 P45      -0.603100
      2 C02         -2.9270    -2.6500    -1.0800 cd         1 P45       0.465500
      3 C03         -1.6920    -2.9650    -0.4630 cd         1 P45      -0.261300
      4 C04         -1.2120    -1.7470     0.0250 cc         1 P45       0.521500
      5 N05         -2.1710    -0.8410    -0.3330 na         1 P45      -0.173600
      6 N06         -0.1210    -1.3970     0.6850 nc         1 P45      -0.799000
      7 C07         -0.0370    -0.1020     0.9640 cd         1 P45       0.977900
      8 N08         -0.9500     0.8470     0.6370 nd         1 P45      -0.876000
      9 C09         -2.0160     0.4790    -0.0090 cc         1 P45       0.884400
     10 N10         -3.0020     1.2890    -0.3970 nu         1 P45      -0.726300
     11 C11         -3.1540     2.6720    -0.2250 ca         1 P45       0.157600
     12 C12         -4.3480     3.2180    -0.6990 ca         1 P45      -0.155500
     13 C13         -4.5940     4.5750    -0.5820 ca         1 P45      -0.103000
     14 C14         -3.6550     5.4100     0.0110 ca         1 P45      -0.142000
     15 C15         -2.4700     4.8650     0.4800 ca         1 P45      -0.103000
     16 C16         -2.2070     3.5050     0.3690 ca         1 P45      -0.155500
     17 N17          1.0280     0.3340     1.6360 nu         1 P45      -0.845900
     18 C18          2.1450    -0.5100     1.9990 c3         1 P45       0.287100
     19 C19          3.0400    -0.8380     0.8290 ca         1 P45      -0.122300
     20 C20          3.8650     0.1410     0.2830 ca         1 P45      -0.094500
     21 C21          4.6880    -0.1380    -0.7970 ca         1 P45      -0.126000
     22 C22          4.6810    -1.4160    -1.3350 ca         1 P45       0.037400
     23 C23          3.8690    -2.4090    -0.8110 ca         1 P45      -0.126000
     24 C24          3.0500    -2.1090     0.2690 ca         1 P45      -0.094500
     25 C25         -1.0560    -4.2100    -0.3540 ch         1 P45       0.260500
     26 N26         -0.5280    -5.2330    -0.2660 n1         1 P45      -0.396800
     27 CL27         5.7090    -1.7780    -2.6840 cl         1 P45      -0.111400
     28 H02         -3.5990    -3.3350    -1.5730 h4         1 P45       0.056800
     29 HN10        -3.7630     0.8270    -0.8790 hn         1 P45       0.481800
     30 H12         -5.0880     2.5770    -1.1640 ha         1 P45       0.150000
     31 H13         -5.5260     4.9780    -0.9570 ha         1 P45       0.136000
     32 H14         -3.8470     6.4710     0.1040 ha         1 P45       0.138000
     33 H15         -1.7270     5.5010     0.9430 ha         1 P45       0.136000
     34 H16         -1.2780     3.1080     0.7440 ha         1 P45       0.150000
     35 HN17         1.0910     1.3250     1.8070 hn         1 P45       0.455800
     36 H181         2.7080     0.0290     2.7610 h1         1 P45       0.067200
     37 H182         1.7770    -1.4270     2.4600 h1         1 P45       0.067200
     38 H20          3.8760     1.1390     0.7040 ha         1 P45       0.141500
     39 H21          5.3300     0.6290    -1.2090 ha         1 P45       0.150500
     40 H23          3.8700    -3.4030    -1.2370 ha         1 P45       0.150500
     41 H24          2.4050    -2.8780     0.6730 ha         1 P45       0.141500
@<TRIPOS>BOND
     1     1     2 2   
     2     1     5 1   
     3     2     3 1   
     4     2    28 1   
     5     3     4 2   
     6     3    25 1   
     7     4     5 1   
     8     4     6 1   
     9     5     9 1   
    10     6     7 2   
    11     7     8 1   
    12     7    17 1   
    13     8     9 2   
    14     9    10 1   
    15    10    11 1   
    16    10    29 1   
    17    11    12 ar  
    18    11    16 ar  
    19    12    13 ar  
    20    12    30 1   
    21    13    14 ar  
    22    13    31 1   
    23    14    15 ar  
    24    14    32 1   
    25    15    16 ar  
    26    15    33 1   
    27    16    34 1   
    28    17    18 1   
    29    17    35 1   
    30    18    19 1   
    31    18    36 1   
    32    18    37 1   
    33    19    20 ar  
    34    19    24 ar  
    35    20    21 ar  
    36    20    38 1   
    37    21    22 ar  
    38    21    39 1   
    39    22    23 ar  
    40    22    27 1   
    41    23    24 ar  
    42    23    40 1   
    43    24    41 1   
    44    25    26 3   
@<TRIPOS>SUBSTRUCTURE
     1 P45         1 TEMP              0 ****  ****    0 ROOT
