@<TRIPOS>MOLECULE
P46
   62    65     1     0     0
SMALL
abcg2


@<TRIPOS>ATOM
      1 C01         -7.9930     1.5600    -0.1030 ca         1 P46       0.246100
      2 C02         -7.3980     0.9290     0.9860 ca         1 P46      -0.276000
      3 C04         -6.1470    -0.4670    -0.5230 ca         1 P46      -0.393500
      4 C05         -6.7450     0.1740    -1.6050 ca         1 P46       0.070000
      5 C11         -2.8070    -0.1900    -0.9960 cc         1 P46      -0.218100
      6 C12         -1.6940     0.1030    -0.2390 ca         1 P46      -0.042000
      7 C13         -1.7660    -0.7040     0.9500 ca         1 P46      -0.118000
      8 C14         -2.9160    -1.4600     0.8840 cc         1 P46      -0.162100
      9 C15         -0.7310    -0.6090     1.9170 ca         1 P46      -0.048000
     10 C03         -6.4760    -0.0870     0.7880 ca         1 P46       0.287100
     11 C06         -7.6630     1.1810    -1.4080 ca         1 P46      -0.266000
     12 S07         -5.0140    -1.7600    -0.8300 sy         1 P46       1.196700
     13 O08         -4.8800    -1.9160    -2.2640 o          1 P46      -0.520000
     14 N10         -3.5240    -1.1390    -0.2970 na         1 P46      -0.149000
     15 C16          0.3050     0.2390     1.6960 ca         1 P46      -0.142000
     16 C17          0.3980     1.0440     0.5010 ca         1 P46       0.281000
     17 C18         -0.5860     0.9660    -0.4510 ca         1 P46      -0.168000
     18 N19          1.4600     1.9270     0.3620 nu         1 P46      -0.925200
     19 C20          2.7900     1.5900     0.8390 c6         1 P46       0.210500
     20 C21          3.7290     2.7630     0.5890 c6         1 P46      -0.117400
     21 C22          5.1430     2.4370     1.0510 c6         1 P46       0.100000
     22 N23          5.6340     1.2210     0.4230 n          1 P46      -0.416800
     23 C24          4.7890     0.0670     0.6800 c6         1 P46       0.100000
     24 C25          3.3660     0.3240     0.2030 c6         1 P46      -0.117400
     25 C26          6.7590     1.2380    -0.3230 c          1 P46       0.611100
     26 C27          7.2670    -0.0850    -0.8950 c3         1 P46       0.107500
     27 C28          7.9970    -0.8340     0.2310 c3         1 P46      -0.209400
     28 C29          8.4410    -2.2190    -0.1960 c          1 P46       0.597100
     29 O30          7.7800    -2.8980    -0.9700 o          1 P46      -0.607100
     30 N31          9.5830    -2.6450     0.3590 nt         1 P46      -0.607000
     31 N32          8.0770     0.1890    -2.0630 n8         1 P46      -0.984200
     32 O33          7.4070     2.2600    -0.5080 o          1 P46      -0.596100
     33 O34         -5.8720    -0.7130     1.7950 oh         1 P46      -0.519100
     34 O35         -8.8730     2.5280     0.1590 oh         1 P46      -0.518100
     35 H1          -7.6590     1.2380     1.9920 ha         1 P46       0.137000
     36 H2          -6.4920    -0.1160    -2.6150 ha         1 P46       0.147000
     37 H4          -3.3380    -2.1730     1.5700 h4         1 P46       0.242000
     38 H5          -0.7680    -1.2000     2.8230 ha         1 P46       0.111000
     39 H6          -8.1230     1.6680    -2.2580 ha         1 P46       0.127000
     40 H7           1.0810     0.3190     2.4460 ha         1 P46       0.108000
     41 H8          -0.5240     1.5590    -1.3560 ha         1 P46       0.111000
     42 H9           1.4860     2.3500    -0.5550 hn         1 P46       0.447000
     43 H10          2.7430     1.4400     1.9230 h1         1 P46       0.058700
     44 H11          3.7440     3.0040    -0.4800 hc         1 P46       0.059700
     45 H12          3.3730     3.6490     1.1180 hc         1 P46       0.059700
     46 H13          5.8170     3.2580     0.8240 h1         1 P46       0.055200
     47 H14          5.1540     2.2960     2.1380 h1         1 P46       0.055200
     48 H15          5.1800    -0.8250     0.2020 h1         1 P46       0.055200
     49 H16          4.7870    -0.1310     1.7580 h1         1 P46       0.055200
     50 H17          2.7500    -0.5450     0.4510 hc         1 P46       0.059700
     51 H18          3.3570     0.4280    -0.8860 hc         1 P46       0.059700
     52 H19          6.4300    -0.6950    -1.2370 h1         1 P46       0.092700
     53 H20          8.8460    -0.2390     0.5770 hc         1 P46       0.067700
     54 H21          7.3460    -0.9690     1.1000 hc         1 P46       0.067700
     55 H22         10.1030    -2.0760     1.0050 hn         1 P46       0.316000
     56 H23          9.9150    -3.5820     0.1950 hn         1 P46       0.316000
     57 H24          8.9290     0.6690    -1.8000 hn         1 P46       0.411500
     58 H25          8.3520    -0.6850    -2.4910 hn         1 P46       0.411500
     59 H27         -6.1540    -0.3560     2.6470 ho         1 P46       0.492000
     60 H28         -9.2200     2.9060    -0.6580 ho         1 P46       0.479000
     61 H3          -3.1290     0.1750    -1.9570 h4         1 P46       0.233000
     62 O09         -5.2770    -2.9130     0.0030 o          1 P46      -0.520000
@<TRIPOS>BOND
     1     1     2 ar  
     2     1    11 ar  
     3     1    34 1   
     4     2    10 ar  
     5     2    35 1   
     6     3     4 ar  
     7     3    10 ar  
     8     3    12 1   
     9     4    11 ar  
    10     4    36 1   
    11     5     6 2   
    12     5    14 1   
    13     5    61 1   
    14     6     7 ar  
    15     6    17 ar  
    16     7     8 2   
    17     7     9 ar  
    18     8    14 1   
    19     8    37 1   
    20     9    15 ar  
    21     9    38 1   
    22    10    33 1   
    23    11    39 1   
    24    12    13 2   
    25    12    14 1   
    26    12    62 2   
    27    15    16 ar  
    28    15    40 1   
    29    16    17 ar  
    30    16    18 1   
    31    17    41 1   
    32    18    19 1   
    33    18    42 1   
    34    19    20 1   
    35    19    24 1   
    36    19    43 1   
    37    20    21 1   
    38    20    44 1   
    39    20    45 1   
    40    21    22 1   
    41    21    46 1   
    42    21    47 1   
    43    22    23 1   
    44    22    25 1   
    45    23    24 1   
    46    23    48 1   
    47    23    49 1   
    48    24    50 1   
    49    24    51 1   
    50    25    26 1   
    51    25    32 2   
    52    26    27 1   
    53    26    31 1   
    54    26    52 1   
    55    27    28 1   
    56    27    53 1   
    57    27    54 1   
    58    28    29 2   
    59    28    30 1   
    60    30    55 1   
    61    30    56 1   
    62    31    57 1   
    63    31    58 1   
    64    33    59 1   
    65    34    60 1   
@<TRIPOS>SUBSTRUCTURE
     1 P46         1 TEMP              0 ****  ****    0 ROOT
