@<TRIPOS>MOLECULE
P46
   62    65     1     0     0
SMALL
No Charge or Current Charge


@<TRIPOS>ATOM
      1 C01         -8.1880     1.4880    -0.2370 ca         1 P46       0.246100
      2 C02         -7.5750     0.8760     0.8580 ca         1 P46      -0.276000
      3 C04         -6.2910    -0.5400    -0.6420 ca         1 P46      -0.393500
      4 C05         -6.9090     0.0830    -1.7470 ca         1 P46       0.070000
      5 C11         -2.7040    -0.2430    -0.9820 cc         1 P46      -0.218100
      6 C12         -1.5800     0.0660    -0.1320 ca         1 P46      -0.042000
      7 C13         -1.7330    -0.6330     1.0350 ca         1 P46      -0.118000
      8 C14         -2.9580    -1.3930     0.9350 cc         1 P46      -0.162100
      9 C15         -0.8010    -0.5440     2.0750 ca         1 P46      -0.048000
     10 C03         -6.6270    -0.1360     0.6600 ca         1 P46       0.287100
     11 C06         -7.8580     1.0960    -1.5380 ca         1 P46      -0.266000
     12 S07         -5.0670    -1.8340    -0.9280 sy         1 P46       1.196700
     13 O08         -4.8970    -1.9630    -2.3840 o          1 P46      -0.520000
     14 N10         -3.5560    -1.1480    -0.3160 na         1 P46      -0.149000
     15 C16          0.3180     0.2970     1.8830 ca         1 P46      -0.142000
     16 C17          0.4840     1.0180     0.6730 ca         1 P46       0.281000
     17 C18         -0.4820     0.9060    -0.3490 ca         1 P46      -0.168000
     18 N19          1.5840     1.8570     0.4640 nu         1 P46      -0.925200
     19 C20          2.9240     1.6470     1.0340 c6         1 P46       0.210500
     20 C21          3.8240     2.8540     0.6790 c6         1 P46      -0.117400
     21 C22          5.2700     2.6200     1.1750 c6         1 P46       0.100000
     22 N23          5.8160     1.3530     0.6180 n          1 P46      -0.416800
     23 C24          4.9940     0.1680     0.9900 c6         1 P46       0.100000
     24 C25          3.5420     0.3350     0.4890 c6         1 P46      -0.117400
     25 C26          6.8370     1.3460    -0.3720 c          1 P46       0.611100
     26 C27          7.3970    -0.0350    -0.9140 c3         1 P46       0.107500
     27 C28          8.2050    -0.7950     0.1720 c3         1 P46      -0.209400
     28 C29          8.1510    -2.3080    -0.0280 c          1 P46       0.597100
     29 O30          7.1490    -2.9710     0.1730 o          1 P46      -0.607100
     30 N31          9.2990    -2.9000    -0.4160 nt         1 P46      -0.607000
     31 N32          8.2120     0.0370    -2.1760 n8         1 P46      -0.984200
     32 O33          7.3070     2.4070    -0.7740 o          1 P46      -0.596100
     33 O34         -6.0460    -0.7030     1.7480 oh         1 P46      -0.519100
     34 O35         -9.1060     2.4680    -0.0300 oh         1 P46      -0.518100
     35 H1          -7.8420     1.1960     1.8610 ha         1 P46       0.137000
     36 H2          -6.6660    -0.2080    -2.7690 ha         1 P46       0.147000
     37 H4          -3.4380    -2.0610     1.6450 h4         1 P46       0.242000
     38 H5          -0.9350    -1.1000     2.9990 ha         1 P46       0.111000
     39 H6          -8.3310     1.5690    -2.3950 ha         1 P46       0.127000
     40 H7           1.0480     0.3860     2.6800 ha         1 P46       0.108000
     41 H8          -0.3780     1.4520    -1.2820 ha         1 P46       0.111000
     42 H9           1.5360     2.4060    -0.3940 hn         1 P46       0.447000
     43 H10          2.8660     1.5820     2.1320 h1         1 P46       0.058700
     44 H11          3.8370     3.0120    -0.4080 hc         1 P46       0.059700
     45 H12          3.4220     3.7710     1.1300 hc         1 P46       0.059700
     46 H13          5.8970     3.4800     0.9000 h1         1 P46       0.055200
     47 H14          5.2750     2.5590     2.2730 h1         1 P46       0.055200
     48 H15          5.4090    -0.7680     0.5980 h1         1 P46       0.055200
     49 H16          4.9890     0.0720     2.0860 h1         1 P46       0.055200
     50 H17          2.9440    -0.5300     0.8060 hc         1 P46       0.059700
     51 H18          3.5340     0.3400    -0.6100 hc         1 P46       0.059700
     52 H19          6.5050    -0.6300    -1.1560 h1         1 P46       0.092700
     53 H20          9.2420    -0.4390     0.1720 hc         1 P46       0.067700
     54 H21          7.7650    -0.5840     1.1530 hc         1 P46       0.067700
     55 H22         10.1340    -2.3500    -0.5520 hn         1 P46       0.316000
     56 H23          9.3170    -3.9010    -0.5460 hn         1 P46       0.316000
     57 H24          8.9930     0.6920    -2.0370 hn         1 P46       0.411500
     58 H25          8.6690    -0.8640    -2.3570 hn         1 P46       0.411500
     59 H27         -6.4260    -0.2820     2.5460 ho         1 P46       0.492000
     60 H28         -9.4230     2.7740    -0.9050 ho         1 P46       0.479000
     61 H3          -2.9510     0.1030    -1.9810 h4         1 P46       0.233000
     62 O09         -5.3800    -2.9850    -0.0640 o          1 P46      -0.520000
@<TRIPOS>BOND
     1     1     2 ar  
     2     1    11 ar  
     3     1    34 1   
     4     2    10 ar  
     5     2    35 1   
     6     3     4 ar  
     7     3    10 ar  
     8     3    12 1   
     9     4    11 ar  
    10     4    36 1   
    11     5     6 2   
    12     5    14 1   
    13     5    61 1   
    14     6     7 ar  
    15     6    17 ar  
    16     7     8 2   
    17     7     9 ar  
    18     8    14 1   
    19     8    37 1   
    20     9    15 ar  
    21     9    38 1   
    22    10    33 1   
    23    11    39 1   
    24    12    13 2   
    25    12    14 1   
    26    12    62 2   
    27    15    16 ar  
    28    15    40 1   
    29    16    17 ar  
    30    16    18 1   
    31    17    41 1   
    32    18    19 1   
    33    18    42 1   
    34    19    20 1   
    35    19    24 1   
    36    19    43 1   
    37    20    21 1   
    38    20    44 1   
    39    20    45 1   
    40    21    22 1   
    41    21    46 1   
    42    21    47 1   
    43    22    23 1   
    44    22    25 1   
    45    23    24 1   
    46    23    48 1   
    47    23    49 1   
    48    24    50 1   
    49    24    51 1   
    50    25    26 1   
    51    25    32 2   
    52    26    27 1   
    53    26    31 1   
    54    26    52 1   
    55    27    28 1   
    56    27    53 1   
    57    27    54 1   
    58    28    29 2   
    59    28    30 1   
    60    30    55 1   
    61    30    56 1   
    62    31    57 1   
    63    31    58 1   
    64    33    59 1   
    65    34    60 1   
@<TRIPOS>SUBSTRUCTURE
     1 P46         1 TEMP              0 ****  ****    0 ROOT
