@<TRIPOS>MOLECULE
P47
   34    35     1     0     0
SMALL
abcg2


@<TRIPOS>ATOM
      1 OAA          4.0880     3.3120    -0.9460 o          1 P47      -0.717500
      2 CAP          3.8690     2.2690    -0.2910 c          1 P47       0.695200
      3 OAB          4.7180     1.4650     0.1360 o          1 P47      -0.717500
      4 CAD          2.4120     2.0070     0.0090 ce         1 P47      -0.206200
      5 CAQ          1.8140     0.8280     0.2070 cf         1 P47      -0.148400
      6 CAT          2.4930    -0.4830     0.0750 ca         1 P47       0.027200
      7 CAK          2.4610    -1.4050     1.1210 ca         1 P47      -0.092500
      8 CAG          3.0510    -2.6550     0.9870 ca         1 P47      -0.121500
      9 CAE          3.6630    -3.0130    -0.2070 ca         1 P47      -0.136000
     10 CAF          3.6820    -2.1090    -1.2630 ca         1 P47      -0.121500
     11 CAJ          3.1040    -0.8570    -1.1210 ca         1 P47      -0.092500
     12 CAN          0.3390     0.7540     0.5050 c3         1 P47      -0.021200
     13 CAO         -0.4630     0.1720    -0.6680 c3         1 P47      -0.042100
     14 CAS         -1.9220     0.0500    -0.3340 ca         1 P47      -0.054300
     15 CAL         -2.8250     1.0460    -0.6940 ca         1 P47      -0.103500
     16 CAM         -2.4000    -1.0420     0.3880 ca         1 P47      -0.103500
     17 CAI         -3.7380    -1.1440     0.7400 ca         1 P47      -0.107500
     18 CAR         -4.6120    -0.1360     0.3650 ca         1 P47       0.107000
     19 CLAC        -6.2880    -0.2520     0.8000 cl         1 P47      -0.232000
     20 CAH         -4.1680     0.9630    -0.3530 ca         1 P47      -0.107500
     21 HAD          1.7800     2.8920     0.0580 ha         1 P47       0.145000
     22 HAK          1.9840    -1.1400     2.0570 ha         1 P47       0.110000
     23 HAG          3.0280    -3.3520     1.8150 ha         1 P47       0.091500
     24 HAE          4.1160    -3.9900    -0.3170 ha         1 P47       0.088000
     25 HAF          4.1480    -2.3830    -2.2010 ha         1 P47       0.091500
     26 HAJ          3.1150    -0.1620    -1.9510 ha         1 P47       0.110000
     27 HAN          0.1720     0.1280     1.3870 hc         1 P47       0.033200
     28 HANA        -0.0440     1.7480     0.7480 hc         1 P47       0.033200
     29 HAO         -0.3360     0.8180    -1.5390 hc         1 P47       0.055700
     30 HAOA        -0.0590    -0.8070    -0.9350 hc         1 P47       0.055700
     31 HAL         -2.4790     1.9070    -1.2540 ha         1 P47       0.121000
     32 HAM         -1.7200    -1.8330     0.6810 ha         1 P47       0.121000
     33 HAI         -4.0920    -2.0020     1.2960 ha         1 P47       0.120000
     34 HAH         -4.8560     1.7440    -0.6460 ha         1 P47       0.120000
@<TRIPOS>BOND
     1     1     2 1   
     2     2     3 1   
     3     2     4 1   
     4     4     5 2   
     5     4    21 1   
     6     5     6 1   
     7     5    12 1   
     8     6     7 ar  
     9     6    11 ar  
    10     7     8 ar  
    11     7    22 1   
    12     8     9 ar  
    13     8    23 1   
    14     9    10 ar  
    15     9    24 1   
    16    10    11 ar  
    17    10    25 1   
    18    11    26 1   
    19    12    13 1   
    20    12    27 1   
    21    12    28 1   
    22    13    14 1   
    23    13    29 1   
    24    13    30 1   
    25    14    15 ar  
    26    14    16 ar  
    27    15    20 ar  
    28    15    31 1   
    29    16    17 ar  
    30    16    32 1   
    31    17    18 ar  
    32    17    33 1   
    33    18    19 1   
    34    18    20 ar  
    35    20    34 1   
@<TRIPOS>SUBSTRUCTURE
     1 P47         1 TEMP              0 ****  ****    0 ROOT
