@<TRIPOS>MOLECULE
P47
   34    35     1     0     0
SMALL
No Charge or Current Charge


@<TRIPOS>ATOM
      1 OAA          4.1270     3.5950    -0.4410 o          1 P47      -0.717500
      2 CAP          3.8670     2.4120    -0.2840 c          1 P47       0.695200
      3 OAB          4.7180     1.5380    -0.3210 o          1 P47      -0.717500
      4 CAD          2.4370     2.0660     0.0080 ce         1 P47      -0.206200
      5 CAQ          1.8620     0.8330     0.1910 cf         1 P47      -0.148400
      6 CAT          2.5110    -0.4900     0.0620 ca         1 P47       0.027200
      7 CAK          2.5280    -1.3930     1.1450 ca         1 P47      -0.092500
      8 CAG          3.1110    -2.6650     1.0040 ca         1 P47      -0.121500
      9 CAE          3.6760    -3.0470    -0.2230 ca         1 P47      -0.136000
     10 CAF          3.6570    -2.1570    -1.3100 ca         1 P47      -0.121500
     11 CAJ          3.0760    -0.8850    -1.1670 ca         1 P47      -0.092500
     12 CAN          0.3700     0.7270     0.5060 c3         1 P47      -0.021200
     13 CAO         -0.4510     0.0660    -0.6230 c3         1 P47      -0.042100
     14 CAS         -1.9370     0.0070    -0.2940 ca         1 P47      -0.054300
     15 CAL         -2.8000     1.0370    -0.7160 ca         1 P47      -0.103500
     16 CAM         -2.4560    -1.0750     0.4430 ca         1 P47      -0.103500
     17 CAI         -3.8270    -1.1290     0.7530 ca         1 P47      -0.107500
     18 CAR         -4.6830    -0.1000     0.3270 ca         1 P47       0.107000
     19 ClAC        -6.3970    -0.1670     0.7150 cl         1 P47      -0.232000
     20 CAH         -4.1710     0.9830    -0.4060 ca         1 P47      -0.107500
     21 HAD          1.7980     2.9410     0.0960 ha         1 P47       0.145000
     22 HAK          2.0950    -1.1060     2.1000 ha         1 P47       0.110000
     23 HAG          3.1220    -3.3530     1.8460 ha         1 P47       0.091500
     24 HAE          4.1250    -4.0310    -0.3330 ha         1 P47       0.088000
     25 HAF          4.0910    -2.4520    -2.2620 ha         1 P47       0.091500
     26 HAJ          3.0560    -0.2030    -2.0140 ha         1 P47       0.110000
     27 HAN          0.2130     0.1630     1.4330 hc         1 P47       0.033200
     28 HANA        -0.0540     1.7200     0.6970 hc         1 P47       0.033200
     29 HAO         -0.2900     0.6240    -1.5540 hc         1 P47       0.055700
     30 HAOA        -0.0720    -0.9460    -0.8070 hc         1 P47       0.055700
     31 HAL         -2.4100     1.8800    -1.2820 ha         1 P47       0.121000
     32 HAM         -1.7970    -1.8740     0.7780 ha         1 P47       0.121000
     33 HAI         -4.2250    -1.9650     1.3220 ha         1 P47       0.120000
     34 HAH         -4.8350     1.7790    -0.7330 ha         1 P47       0.120000
@<TRIPOS>BOND
     1     1     2 1   
     2     2     3 1   
     3     2     4 1   
     4     4     5 2   
     5     4    21 1   
     6     5     6 1   
     7     5    12 1   
     8     6     7 ar  
     9     6    11 ar  
    10     7     8 ar  
    11     7    22 1   
    12     8     9 ar  
    13     8    23 1   
    14     9    10 ar  
    15     9    24 1   
    16    10    11 ar  
    17    10    25 1   
    18    11    26 1   
    19    12    13 1   
    20    12    27 1   
    21    12    28 1   
    22    13    14 1   
    23    13    29 1   
    24    13    30 1   
    25    14    15 ar  
    26    14    16 ar  
    27    15    20 ar  
    28    15    31 1   
    29    16    17 ar  
    30    16    32 1   
    31    17    18 ar  
    32    17    33 1   
    33    18    19 1   
    34    18    20 ar  
    35    20    34 1   
@<TRIPOS>SUBSTRUCTURE
     1 P47         1 TEMP              0 ****  ****    0 ROOT
