@<TRIPOS>MOLECULE
P48
   66    70     1     0     0
SMALL
No Charge or Current Charge


@<TRIPOS>ATOM
      1 O1           7.7580    -0.9120    -0.5420 o          1 P48      -0.605100
      2 C2           7.2540     0.1730    -0.2890 c          1 P48       0.534600
      3 N3           8.0220     1.3220    -0.3600 ns         1 P48      -0.495900
      4 C4           9.4430     1.3620    -0.7080 c3         1 P48       0.096300
      5 C5           5.8120     0.4550     0.0820 cc         1 P48       0.197500
      6 N6           5.3690     1.7070     0.2000 nd         1 P48      -0.522800
      7 N7           4.0140     1.5690     0.4240 na         1 P48       0.188800
      8 C8           3.1670     2.7610     0.5910 c3         1 P48       0.076900
      9 C9           3.6240     0.2290     0.4640 cd         1 P48      -0.246500
     10 C10          4.7640    -0.5030     0.2910 cc         1 P48      -0.091300
     11 C11          2.2830    -0.3500     0.5450 ca         1 P48       0.242500
     12 C12          2.1790    -1.7410     0.6650 ca         1 P48      -0.217300
     13 C13          3.4320    -2.5910     0.8900 c6         1 P48      -0.013100
     14 C14          4.7640    -2.0440     0.2470 c6         1 P48       0.041300
     15 C15          5.9350    -2.6980     1.0550 c3         1 P48      -0.085100
     16 C16          4.8400    -2.5110    -1.2360 c3         1 P48      -0.085100
     17 N17          1.1910     0.4310     0.4270 nb         1 P48      -0.261000
     18 C18          0.0020    -0.1940     0.4360 ca         1 P48       0.389900
     19 N19         -0.2080    -1.5180     0.5680 nb         1 P48      -0.227000
     20 C20          0.8870    -2.2930     0.6830 ca         1 P48       0.151900
     21 N21         -1.0960     0.6540     0.3450 nu         1 P48      -0.926900
     22 C22         -2.4760     0.4630     0.1990 ca         1 P48       0.280000
     23 C23         -3.3470     1.4680     0.6540 ca         1 P48      -0.117000
     24 C24         -4.7410     1.3260     0.5170 ca         1 P48      -0.132500
     25 C25         -5.2920     0.1800    -0.0880 ca         1 P48       0.267000
     26 C26         -4.4170    -0.8210    -0.5570 ca         1 P48      -0.132500
     27 C27         -3.0230    -0.6780    -0.4200 ca         1 P48      -0.117000
     28 N28         -6.6970     0.0550    -0.2150 nh         1 P48      -0.781400
     29 C29         -7.3540    -1.2900    -0.3100 c6         1 P48       0.193800
     30 C30         -8.8650    -1.2510     0.0900 c6         1 P48       0.157800
     31 N31         -9.6390    -0.2150    -0.6590 n3         1 P48      -0.714600
     32 C32        -11.0750    -0.2110    -0.3090 c3         1 P48       0.152100
     33 C33         -8.9970     1.1230    -0.4780 c6         1 P48       0.157800
     34 C34         -7.4890     1.1340    -0.8900 c6         1 P48       0.193800
     35 H3           7.5350     2.1890    -0.1560 hn         1 P48       0.331500
     36 H41C        10.0170     0.7650     0.0120 h1         1 P48       0.039367
     37 H42C         9.5880     0.9560    -1.7180 h1         1 P48       0.039367
     38 H43C         9.7970     2.4000    -0.6820 h1         1 P48       0.039367
     39 H81C         2.5020     2.8590    -0.2750 h1         1 P48       0.064700
     40 H82C         2.5700     2.6590     1.5040 h1         1 P48       0.064700
     41 H83C         3.7930     3.6570     0.6690 h1         1 P48       0.064700
     42 H131         3.5640    -2.6580     1.9790 hc         1 P48       0.053700
     43 H132         3.2490    -3.6240     0.5600 hc         1 P48       0.053700
     44 H20          0.7230    -3.3630     0.8060 h4         1 P48       0.025100
     45 H151         6.2050    -2.0940     1.9290 hc         1 P48       0.043700
     46 H152         5.6600    -3.6940     1.4230 hc         1 P48       0.043700
     47 H153         6.8340    -2.8650     0.4570 hc         1 P48       0.043700
     48 H161         5.7440    -2.1460    -1.7350 hc         1 P48       0.043700
     49 H162         4.8410    -3.6050    -1.3140 hc         1 P48       0.043700
     50 H163         3.9810    -2.1400    -1.8090 hc         1 P48       0.043700
     51 H21         -0.8320     1.6290     0.4830 hn         1 P48       0.505000
     52 H23         -2.9470     2.3600     1.1280 ha         1 P48       0.125500
     53 H27         -2.3760    -1.4530    -0.8170 ha         1 P48       0.125500
     54 H24         -5.3950     2.1060     0.8950 ha         1 P48       0.115500
     55 H26         -4.8080    -1.7070    -1.0460 ha         1 P48       0.115500
     56 H291        -7.2730    -1.6690    -1.3400 h1         1 P48       0.043700
     57 H292        -6.8430    -2.0090     0.3460 h1         1 P48       0.043700
     58 H341        -7.0770     2.1260    -0.6570 h1         1 P48       0.043700
     59 H342        -7.4230     1.0080    -1.9810 h1         1 P48       0.043700
     60 H301        -9.2970    -2.2480    -0.0830 h1         1 P48       0.039450
     61 H302        -8.9310    -1.0600     1.1720 h1         1 P48       0.039450
     62 H321       -11.2210     0.0340     0.7520 h1         1 P48       0.031700
     63 H322       -11.6190     0.5290    -0.9110 h1         1 P48       0.031700
     64 H323       -11.5230    -1.1960    -0.4990 h1         1 P48       0.031700
     65 H331        -9.5260     1.8820    -1.0720 h1         1 P48       0.039450
     66 H332        -9.0700     1.4350     0.5750 h1         1 P48       0.039450
@<TRIPOS>BOND
     1     1     2 2   
     2     2     3 1   
     3     2     5 1   
     4     3     4 1   
     5     3    35 1   
     6     4    36 1   
     7     4    37 1   
     8     4    38 1   
     9     5     6 2   
    10     5    10 1   
    11     6     7 1   
    12     7     8 1   
    13     7     9 1   
    14     8    39 1   
    15     8    40 1   
    16     8    41 1   
    17     9    10 2   
    18     9    11 1   
    19    10    14 1   
    20    11    12 ar  
    21    11    17 ar  
    22    12    13 1   
    23    12    20 ar  
    24    13    14 1   
    25    13    42 1   
    26    13    43 1   
    27    14    15 1   
    28    14    16 1   
    29    15    45 1   
    30    15    46 1   
    31    15    47 1   
    32    16    48 1   
    33    16    49 1   
    34    16    50 1   
    35    17    18 ar  
    36    18    19 ar  
    37    18    21 1   
    38    19    20 ar  
    39    20    44 1   
    40    21    22 1   
    41    21    51 1   
    42    22    23 ar  
    43    22    27 ar  
    44    23    24 ar  
    45    23    52 1   
    46    24    25 ar  
    47    24    54 1   
    48    25    26 ar  
    49    25    28 1   
    50    26    27 ar  
    51    26    55 1   
    52    27    53 1   
    53    28    29 1   
    54    28    34 1   
    55    29    30 1   
    56    29    56 1   
    57    29    57 1   
    58    30    31 1   
    59    30    60 1   
    60    30    61 1   
    61    31    32 1   
    62    31    33 1   
    63    32    62 1   
    64    32    63 1   
    65    32    64 1   
    66    33    34 1   
    67    33    65 1   
    68    33    66 1   
    69    34    58 1   
    70    34    59 1   
@<TRIPOS>SUBSTRUCTURE
     1 P48         1 TEMP              0 ****  ****    0 ROOT
