@<TRIPOS>MOLECULE
P48
   66    70     1     0     0
SMALL
abcg2


@<TRIPOS>ATOM
      1 O1           7.5990    -0.7480    -0.9020 o          1 P48      -0.605100
      2 C2           7.1730     0.2410    -0.3190 c          1 P48       0.534600
      3 N3           7.9580     1.2650     0.0390 ns         1 P48      -0.495900
      4 C4           9.3600     1.3140    -0.3010 c3         1 P48       0.096300
      5 C5           5.7350     0.4050     0.0160 cc         1 P48       0.197500
      6 N6           5.2520     1.6400     0.1180 nd         1 P48      -0.522800
      7 N7           3.9590     1.5300     0.3120 na         1 P48       0.188800
      8 C8           3.1480     2.7230     0.4460 c3         1 P48       0.076900
      9 C9           3.5780     0.2330     0.3540 cd         1 P48      -0.246500
     10 C10          4.7100    -0.5470     0.1840 cc         1 P48      -0.091300
     11 C11          2.2350    -0.3050     0.4260 ca         1 P48       0.242500
     12 C12          2.1450    -1.6880     0.6210 ca         1 P48      -0.217300
     13 C13          3.3730    -2.4850     0.9310 c6         1 P48      -0.013100
     14 C14          4.6390    -2.0550     0.1580 c6         1 P48       0.041300
     15 C15          5.8250    -2.7210     0.8560 c3         1 P48      -0.085100
     16 C16          4.5520    -2.5220    -1.3000 c3         1 P48      -0.085100
     17 N17          1.1810     0.4680     0.2500 nb         1 P48      -0.261000
     18 C18         -0.0150    -0.1340     0.2540 ca         1 P48       0.389900
     19 N19         -0.2180    -1.4400     0.3820 nb         1 P48      -0.227000
     20 C20          0.8620    -2.1930     0.5680 ca         1 P48       0.151900
     21 N21         -1.0660     0.7130     0.1040 nu         1 P48      -0.926900
     22 C22         -2.4400     0.4690     0.0790 ca         1 P48       0.280000
     23 C23         -3.2850     1.5610     0.3070 ca         1 P48      -0.117000
     24 C24         -4.6570     1.4300     0.2700 ca         1 P48      -0.132500
     25 C25         -5.2670     0.1980    -0.0060 ca         1 P48       0.267000
     26 C26         -4.4170    -0.8840    -0.2410 ca         1 P48      -0.132500
     27 C27         -3.0320    -0.7600    -0.1940 ca         1 P48      -0.117000
     28 N28         -6.6610     0.0870    -0.0030 nh         1 P48      -0.781400
     29 C29         -7.2280    -1.2370    -0.1510 c6         1 P48       0.193800
     30 C30         -8.7030    -1.2260     0.2040 c6         1 P48       0.157800
     31 N31         -9.4290    -0.2700    -0.6050 n3         1 P48      -0.714600
     32 C32        -10.8460    -0.2970    -0.3230 c3         1 P48       0.152100
     33 C33         -8.8690     1.0520    -0.4170 c6         1 P48       0.157800
     34 C34         -7.3990     1.0710    -0.7830 c6         1 P48       0.193800
     35 H3           7.5400     2.0660     0.4830 hn         1 P48       0.331500
     36 H41C         9.8980     0.4550     0.1010 h1         1 P48       0.039367
     37 H42C         9.5180     1.3410    -1.3800 h1         1 P48       0.039367
     38 H43C         9.7840     2.2160     0.1310 h1         1 P48       0.039367
     39 H81C         2.4790     2.8330    -0.4040 h1         1 P48       0.064700
     40 H82C         2.5540     2.6790     1.3550 h1         1 P48       0.064700
     41 H83C         3.8210     3.5720     0.4950 h1         1 P48       0.064700
     42 H131         3.5800    -2.3840     2.0030 hc         1 P48       0.053700
     43 H132         3.1900    -3.5470     0.7520 hc         1 P48       0.053700
     44 H20          0.6900    -3.2590     0.6820 h4         1 P48       0.025100
     45 H151         5.9260    -2.3650     1.8830 hc         1 P48       0.043700
     46 H152         5.6660    -3.8010     0.8960 hc         1 P48       0.043700
     47 H153         6.7600    -2.5390     0.3350 hc         1 P48       0.043700
     48 H161         5.4270    -2.1920    -1.8590 hc         1 P48       0.043700
     49 H162         4.5050    -3.6120    -1.3530 hc         1 P48       0.043700
     50 H163         3.6640    -2.1250    -1.7960 hc         1 P48       0.043700
     51 H21         -0.7960     1.6850     0.0860 hn         1 P48       0.505000
     52 H23         -2.8580     2.5310     0.5350 ha         1 P48       0.125500
     53 H27         -2.4250    -1.6310    -0.3830 ha         1 P48       0.125500
     54 H24         -5.2600     2.3030     0.4840 ha         1 P48       0.115500
     55 H26         -4.8180    -1.8590    -0.4810 ha         1 P48       0.115500
     56 H291        -7.1020    -1.6220    -1.1750 h1         1 P48       0.043700
     57 H292        -6.7220    -1.9300     0.5220 h1         1 P48       0.043700
     58 H341        -7.0130     2.0710    -0.5920 h1         1 P48       0.043700
     59 H342        -7.2870     0.8760    -1.8610 h1         1 P48       0.043700
     60 H301        -9.1090    -2.2260     0.0310 h1         1 P48       0.039450
     61 H302        -8.8110    -1.0120     1.2820 h1         1 P48       0.039450
     62 H321       -11.0850    -0.0390     0.7200 h1         1 P48       0.031700
     63 H322       -11.3680     0.4100    -0.9690 h1         1 P48       0.031700
     64 H323       -11.2480    -1.2920    -0.5220 h1         1 P48       0.031700
     65 H331        -9.3980     1.7620    -1.0560 h1         1 P48       0.039450
     66 H332        -8.9870     1.4000     0.6240 h1         1 P48       0.039450
@<TRIPOS>BOND
     1     1     2 2   
     2     2     3 1   
     3     2     5 1   
     4     3     4 1   
     5     3    35 1   
     6     4    36 1   
     7     4    37 1   
     8     4    38 1   
     9     5     6 2   
    10     5    10 1   
    11     6     7 1   
    12     7     8 1   
    13     7     9 1   
    14     8    39 1   
    15     8    40 1   
    16     8    41 1   
    17     9    10 2   
    18     9    11 1   
    19    10    14 1   
    20    11    12 ar  
    21    11    17 ar  
    22    12    13 1   
    23    12    20 ar  
    24    13    14 1   
    25    13    42 1   
    26    13    43 1   
    27    14    15 1   
    28    14    16 1   
    29    15    45 1   
    30    15    46 1   
    31    15    47 1   
    32    16    48 1   
    33    16    49 1   
    34    16    50 1   
    35    17    18 ar  
    36    18    19 ar  
    37    18    21 1   
    38    19    20 ar  
    39    20    44 1   
    40    21    22 1   
    41    21    51 1   
    42    22    23 ar  
    43    22    27 ar  
    44    23    24 ar  
    45    23    52 1   
    46    24    25 ar  
    47    24    54 1   
    48    25    26 ar  
    49    25    28 1   
    50    26    27 ar  
    51    26    55 1   
    52    27    53 1   
    53    28    29 1   
    54    28    34 1   
    55    29    30 1   
    56    29    56 1   
    57    29    57 1   
    58    30    31 1   
    59    30    60 1   
    60    30    61 1   
    61    31    32 1   
    62    31    33 1   
    63    32    62 1   
    64    32    63 1   
    65    32    64 1   
    66    33    34 1   
    67    33    65 1   
    68    33    66 1   
    69    34    58 1   
    70    34    59 1   
@<TRIPOS>SUBSTRUCTURE
     1 P48         1 TEMP              0 ****  ****    0 ROOT
