@<TRIPOS>MOLECULE
P49
   38    41     1     0     0
SMALL
abcg2


@<TRIPOS>ATOM
      1 C1          -0.8370    -2.2170     0.2270 ca         1 P49       0.126900
      2 N2          -1.9460    -1.4920     0.0880 nb         1 P49      -0.252000
      3 C3          -1.7850    -0.1790     0.0160 ca         1 P49       0.375900
      4 N4          -0.6130     0.4640     0.0420 nb         1 P49      -0.260000
      5 C5           0.4280    -1.6770     0.2900 ca         1 P49      -0.206300
      6 C6           0.4730    -0.2770     0.1740 ca         1 P49       0.272500
      7 C7           2.9020    -1.9020    -0.1890 c6         1 P49       0.008900
      8 C8           1.6800    -2.4730     0.5350 c6         1 P49      -0.015100
      9 C9           2.9480    -0.4210    -0.0060 cc         1 P49      -0.107300
     10 C10          1.7920     0.3150     0.1670 cd         1 P49      -0.313500
     11 N11          2.1560     1.6150     0.2620 na         1 P49       0.144800
     12 N12          3.4650     1.7540     0.1710 nd         1 P49      -0.478800
     13 C13          3.9760     0.5370    -0.0040 cc         1 P49       0.207500
     14 C14          1.3190     2.7760     0.4690 c3         1 P49       0.086900
     15 N15         -2.8630     0.6480    -0.1040 nu         1 P49      -0.936900
     16 C16         -4.2280     0.3930    -0.1460 ca         1 P49       0.339000
     17 C17         -5.0640     1.5100    -0.2840 ca         1 P49      -0.163500
     18 C18         -6.4380     1.3660    -0.3320 ca         1 P49      -0.083000
     19 C19         -7.0200     0.1060    -0.2440 ca         1 P49      -0.159000
     20 C20         -6.1950    -1.0000    -0.1080 ca         1 P49      -0.083000
     21 C21         -4.8120    -0.8730    -0.0580 ca         1 P49      -0.163500
     22 C22          5.4580     0.3250    -0.1680 c          1 P49       0.629500
     23 O23          6.1900     1.3230    -0.0400 o          1 P49      -0.709000
     24 O24          5.8090    -0.8450    -0.4200 o          1 P49      -0.709000
     25 H1          -0.9760    -3.2920     0.2930 h4         1 P49       0.012100
     26 H15         -2.6040     1.6220    -0.1640 hn         1 P49       0.505000
     27 H81C         1.8820    -2.4720     1.6120 hc         1 P49       0.041200
     28 H82C         1.5210    -3.5140     0.2520 hc         1 P49       0.041200
     29 H71C         3.8110    -2.3680     0.1840 hc         1 P49       0.069200
     30 H72C         2.8480    -2.1370    -1.2580 hc         1 P49       0.069200
     31 H141         0.7400     2.6770     1.3850 h1         1 P49       0.045367
     32 H142         1.9700     3.6400     0.5490 h1         1 P49       0.045367
     33 H143         0.6320     2.9140    -0.3620 h1         1 P49       0.045367
     34 H17         -4.6270     2.5000    -0.3540 ha         1 P49       0.130500
     35 H21         -4.1950    -1.7500     0.0470 ha         1 P49       0.130500
     36 H18         -7.0580     2.2460    -0.4400 ha         1 P49       0.104000
     37 H19         -8.0950    -0.0070    -0.2810 ha         1 P49       0.105000
     38 H20         -6.6270    -1.9900    -0.0370 ha         1 P49       0.104000
@<TRIPOS>BOND
     1     1     2 ar  
     2     1     5 ar  
     3     1    25 1   
     4     2     3 ar  
     5     3     4 ar  
     6     3    15 1   
     7     4     6 ar  
     8     5     6 ar  
     9     5     8 1   
    10     6    10 1   
    11     7     8 1   
    12     7     9 1   
    13     7    29 1   
    14     7    30 1   
    15     8    27 1   
    16     8    28 1   
    17     9    10 2   
    18     9    13 1   
    19    10    11 1   
    20    11    12 1   
    21    11    14 1   
    22    12    13 2   
    23    13    22 1   
    24    14    31 1   
    25    14    32 1   
    26    14    33 1   
    27    15    16 1   
    28    15    26 1   
    29    16    17 ar  
    30    16    21 ar  
    31    17    18 ar  
    32    17    34 1   
    33    18    19 ar  
    34    18    36 1   
    35    19    20 ar  
    36    19    37 1   
    37    20    21 ar  
    38    20    38 1   
    39    21    35 1   
    40    22    23 1   
    41    22    24 1   
@<TRIPOS>SUBSTRUCTURE
     1 P49         1 TEMP              0 ****  ****    0 ROOT
