@<TRIPOS>MOLECULE
P49
   38    41     1     0     0
SMALL
No Charge or Current Charge


@<TRIPOS>ATOM
      1 C1          -0.8470    -2.2690    -0.0690 ca         1 P49       0.126900
      2 N2          -1.9600    -1.5120    -0.1210 nb         1 P49      -0.252000
      3 C3          -1.7900    -0.1790    -0.0290 ca         1 P49       0.375900
      4 N4          -0.6230     0.4740     0.0840 nb         1 P49      -0.260000
      5 C5           0.4280    -1.6910     0.0560 ca         1 P49      -0.206300
      6 C6           0.4880    -0.2870     0.1350 ca         1 P49       0.272500
      7 C7           3.0270    -1.8370    -0.2120 c6         1 P49       0.008900
      8 C8           1.6980    -2.5510     0.1850 c6         1 P49      -0.015100
      9 C9           2.9670    -0.3480     0.0730 cc         1 P49      -0.107300
     10 C10          1.8080     0.3370     0.2250 cd         1 P49      -0.313500
     11 N11          2.1880     1.6710     0.4030 na         1 P49       0.144800
     12 N12          3.5670     1.8280     0.3690 nd         1 P49      -0.478800
     13 C13          4.0300     0.5950     0.1530 cc         1 P49       0.207500
     14 C14          1.3100     2.8340     0.6190 c3         1 P49       0.086900
     15 N15         -2.9060     0.6440    -0.1100 nu         1 P49      -0.936900
     16 C16         -4.2880     0.4290    -0.1150 ca         1 P49       0.339000
     17 C17         -5.1130     1.3910    -0.7230 ca         1 P49      -0.163500
     18 C18         -6.5100     1.2280    -0.7420 ca         1 P49      -0.083000
     19 C19         -7.0910     0.1010    -0.1400 ca         1 P49      -0.159000
     20 C20         -6.2780    -0.8580     0.4850 ca         1 P49      -0.083000
     21 C21         -4.8810    -0.6910     0.5000 ca         1 P49      -0.163500
     22 C22          5.5070     0.2520    -0.0100 c          1 P49       0.629500
     23 O23          6.3380     1.1510     0.0850 o          1 P49      -0.709000
     24 O24          5.8590    -0.8980    -0.2430 o          1 P49      -0.709000
     25 H1          -0.9820    -3.3480    -0.1210 h4         1 P49       0.012100
     26 H15         -2.6500     1.6160    -0.2720 hn         1 P49       0.505000
     27 H81C         1.7780    -2.8730     1.2330 hc         1 P49       0.041200
     28 H82C         1.5920    -3.4750    -0.4000 hc         1 P49       0.041200
     29 H71C         3.8530    -2.3240     0.3230 hc         1 P49       0.069200
     30 H72C         3.2150    -1.9960    -1.2830 hc         1 P49       0.069200
     31 H141         0.6490     2.6390     1.4720 h1         1 P49       0.045367
     32 H142         1.9110     3.7270     0.8280 h1         1 P49       0.045367
     33 H143         0.7060     3.0080    -0.2800 h1         1 P49       0.045367
     34 H17         -4.6720     2.2660    -1.1920 ha         1 P49       0.130500
     35 H21         -4.2710    -1.4290     1.0100 ha         1 P49       0.130500
     36 H18         -7.1390     1.9750    -1.2220 ha         1 P49       0.104000
     37 H19         -8.1720    -0.0260    -0.1520 ha         1 P49       0.105000
     38 H20         -6.7280    -1.7260     0.9620 ha         1 P49       0.104000
@<TRIPOS>BOND
     1     1     2 ar  
     2     1     5 ar  
     3     1    25 1   
     4     2     3 ar  
     5     3     4 ar  
     6     3    15 1   
     7     4     6 ar  
     8     5     6 ar  
     9     5     8 1   
    10     6    10 1   
    11     7     8 1   
    12     7     9 1   
    13     7    29 1   
    14     7    30 1   
    15     8    27 1   
    16     8    28 1   
    17     9    10 2   
    18     9    13 1   
    19    10    11 1   
    20    11    12 1   
    21    11    14 1   
    22    12    13 2   
    23    13    22 1   
    24    14    31 1   
    25    14    32 1   
    26    14    33 1   
    27    15    16 1   
    28    15    26 1   
    29    16    17 ar  
    30    16    21 ar  
    31    17    18 ar  
    32    17    34 1   
    33    18    19 ar  
    34    18    36 1   
    35    19    20 ar  
    36    19    37 1   
    37    20    21 ar  
    38    20    38 1   
    39    21    35 1   
    40    22    23 1   
    41    22    24 1   
@<TRIPOS>SUBSTRUCTURE
     1 P49         1 TEMP              0 ****  ****    0 ROOT
