@<TRIPOS>MOLECULE
P4A
   38    40     1     0     0
SMALL
bcc


@<TRIPOS>ATOM
      1 N1          -1.0010     3.4630     0.1440 na         1 P4A       0.012400
      2 N2          -1.8940     2.4860     0.0720 nc         1 P4A      -0.592800
      3 C3          -1.2010     1.3580    -0.0360 cd         1 P4A       0.432800
      4 C4           0.1880     1.6430    -0.0310 cd         1 P4A      -0.212300
      5 C5           0.2630     3.0210     0.0820 cc         1 P4A      -0.064600
      6 C6          -1.9200     0.0840    -0.1330 ca         1 P4A      -0.268500
      7 C7           1.3390     0.7290    -0.0710 ca         1 P4A      -0.042000
      8 C8           1.4370     3.9250     0.1810 c3         1 P4A      -0.035800
      9 C12          2.1930     0.6880    -1.1760 ca         1 P4A      -0.081000
     10 C13          3.2790    -0.1680    -1.2130 ca         1 P4A      -0.193000
     11 C14          3.5400    -1.0190    -0.1380 ca         1 P4A       0.141100
     12 C15          2.6990    -0.9910     0.9730 ca         1 P4A      -0.193000
     13 C16          1.6170    -0.1200     0.9950 ca         1 P4A      -0.081000
     14 C21         -3.2920     0.0010     0.1900 ca         1 P4A       0.220100
     15 C22         -3.9600    -1.2180     0.1230 ca         1 P4A      -0.228000
     16 C23         -3.2940    -2.3660    -0.2840 ca         1 P4A       0.186100
     17 C24         -1.9460    -2.3010    -0.6320 ca         1 P4A      -0.277000
     18 C25         -1.2890    -1.0870    -0.5540 ca         1 P4A      -0.025000
     19 O29         -4.0010    -3.5100    -0.3350 oh         1 P4A      -0.491100
     20 O30         -4.0120     1.0640     0.5730 oh         1 P4A      -0.511100
     21 O33          4.6140    -1.8220    -0.2600 os         1 P4A      -0.318900
     22 C34          4.9200    -2.7070     0.7980 c3         1 P4A       0.125700
     23 HN1         -1.3100     4.4190     0.2280 hn         1 P4A       0.324700
     24 H8           1.7290     4.0770     1.2210 hc         1 P4A       0.055367
     25 H8A          2.2930     3.5050    -0.3440 hc         1 P4A       0.055367
     26 H8B          1.2240     4.9030    -0.2510 hc         1 P4A       0.055367
     27 H12          1.9990     1.3320    -2.0250 ha         1 P4A       0.136500
     28 H13          3.9290    -0.1870    -2.0790 ha         1 P4A       0.140500
     29 H15          2.8700    -1.6330     1.8270 ha         1 P4A       0.140500
     30 H16          0.9700    -0.1120     1.8640 ha         1 P4A       0.136500
     31 H22         -5.0120    -1.2620     0.3790 ha         1 P4A       0.160000
     32 H24         -1.4160    -3.1850    -0.9670 ha         1 P4A       0.133000
     33 H25         -0.2470    -1.0540    -0.8370 ha         1 P4A       0.140000
     34 HO29        -3.4430    -4.2350    -0.6380 ho         1 P4A       0.426000
     35 HO30        -3.4580     1.8730     0.4920 ho         1 P4A       0.471000
     36 H34          5.1310    -2.1750     1.7300 h1         1 P4A       0.041033
     37 H34A         4.1150    -3.4250     0.9760 h1         1 P4A       0.041033
     38 H34B         5.8130    -3.2500     0.4970 h1         1 P4A       0.041033
@<TRIPOS>BOND
     1     1     2 1   
     2     1     5 1   
     3     1    23 1   
     4     2     3 2   
     5     3     4 1   
     6     3     6 1   
     7     4     5 2   
     8     4     7 1   
     9     5     8 1   
    10     6    14 ar  
    11     6    18 ar  
    12     7     9 ar  
    13     7    13 ar  
    14     8    24 1   
    15     8    25 1   
    16     8    26 1   
    17     9    10 ar  
    18     9    27 1   
    19    10    11 ar  
    20    10    28 1   
    21    11    12 ar  
    22    11    21 1   
    23    12    13 ar  
    24    12    29 1   
    25    13    30 1   
    26    14    15 ar  
    27    14    20 1   
    28    15    16 ar  
    29    15    31 1   
    30    16    17 ar  
    31    16    19 1   
    32    17    18 ar  
    33    17    32 1   
    34    18    33 1   
    35    19    34 1   
    36    20    35 1   
    37    21    22 1   
    38    22    36 1   
    39    22    37 1   
    40    22    38 1   
@<TRIPOS>SUBSTRUCTURE
     1 P4A         1 TEMP              0 ****  ****    0 ROOT
