@<TRIPOS>MOLECULE
P4A
   38    40     1     0     0
SMALL
No Charge or Current Charge


@<TRIPOS>ATOM
      1 N1          -1.1160     3.5450    -0.2820 na         1 P4A       0.012800
      2 N2          -2.0150     2.5040    -0.1530 nc         1 P4A      -0.592800
      3 C3          -1.2320     1.4400    -0.1020 cd         1 P4A       0.367500
      4 C4           0.1580     1.7750    -0.1100 cd         1 P4A      -0.147000
      5 C5           0.2150     3.1380    -0.2990 cc         1 P4A      -0.115300
      6 C6          -1.8500     0.1000    -0.0540 ca         1 P4A      -0.268500
      7 C7           1.3090     0.8400    -0.0590 ca         1 P4A      -0.042000
      8 C8           1.3760     4.0980    -0.3760 c3         1 P4A      -0.035800
      9 C12          2.5050     1.1030    -0.7610 ca         1 P4A      -0.063000
     10 C13          3.5880     0.2100    -0.6950 ca         1 P4A      -0.175000
     11 C14          3.5050    -0.9560     0.0780 ca         1 P4A       0.141100
     12 C15          2.3200    -1.2270     0.7920 ca         1 P4A      -0.175000
     13 C16          1.2370    -0.3330     0.7230 ca         1 P4A      -0.063000
     14 C21         -3.0140    -0.1460     0.7030 ca         1 P4A       0.220100
     15 C22         -3.6000    -1.4180     0.7250 ca         1 P4A      -0.210000
     16 C23         -3.0510    -2.4530    -0.0370 ca         1 P4A       0.186100
     17 C24         -1.9260    -2.2150    -0.8350 ca         1 P4A      -0.259000
     18 C25         -1.3330    -0.9400    -0.8550 ca         1 P4A      -0.007000
     19 O29         -3.6250    -3.6850    -0.0180 oh         1 P4A      -0.530100
     20 O30         -3.5820     0.8580     1.4180 oh         1 P4A      -0.550100
     21 O33          4.6010    -1.7950     0.1050 os         1 P4A      -0.342100
     22 C34          4.6130    -3.0160     0.8650 c3         1 P4A       0.148900
     23 HN1         -1.4370     4.5100    -0.3560 hn         1 P4A       0.375000
     24 H8           2.2080     3.7650     0.2560 hc         1 P4A       0.055367
     25 H8A          1.7400     4.1930    -1.4060 hc         1 P4A       0.055367
     26 H8B          1.0860     5.0980    -0.0330 hc         1 P4A       0.055367
     27 H12          2.5930     1.9790    -1.3960 ha         1 P4A       0.118500
     28 H13          4.4970     0.4220    -1.2520 ha         1 P4A       0.122500
     29 H15          2.2220    -2.1150     1.4080 ha         1 P4A       0.122500
     30 H16          0.3450    -0.5480     1.3060 ha         1 P4A       0.118500
     31 H22         -4.4860    -1.5960     1.3260 ha         1 P4A       0.142000
     32 H24         -1.5040    -3.0080    -1.4470 ha         1 P4A       0.115000
     33 H25         -0.4700    -0.7640    -1.4940 ha         1 P4A       0.122000
     34 HO29        -3.1090    -4.2690    -0.6140 ho         1 P4A       0.465000
     35 HO30        -3.1650     1.6840     1.0660 ho         1 P4A       0.510000
     36 H34          4.4670    -2.8120     1.9340 h1         1 P4A       0.041033
     37 H34A         3.8210    -3.6960     0.5240 h1         1 P4A       0.041033
     38 H34B         5.5760    -3.5290     0.7460 h1         1 P4A       0.041033
@<TRIPOS>BOND
     1     1     2 1   
     2     1     5 1   
     3     1    23 1   
     4     2     3 2   
     5     3     4 1   
     6     3     6 1   
     7     4     5 2   
     8     4     7 1   
     9     5     8 1   
    10     6    14 ar  
    11     6    18 ar  
    12     7     9 ar  
    13     7    13 ar  
    14     8    24 1   
    15     8    25 1   
    16     8    26 1   
    17     9    10 ar  
    18     9    27 1   
    19    10    11 ar  
    20    10    28 1   
    21    11    12 ar  
    22    11    21 1   
    23    12    13 ar  
    24    12    29 1   
    25    13    30 1   
    26    14    15 ar  
    27    14    20 1   
    28    15    16 ar  
    29    15    31 1   
    30    16    17 ar  
    31    16    19 1   
    32    17    18 ar  
    33    17    32 1   
    34    18    33 1   
    35    19    34 1   
    36    20    35 1   
    37    21    22 1   
    38    22    36 1   
    39    22    37 1   
    40    22    38 1   
@<TRIPOS>SUBSTRUCTURE
     1 P4A         1 TEMP              0 ****  ****    0 ROOT
