@<TRIPOS>MOLECULE
P4B
   24    23     1     0     0
SMALL
bcc


@<TRIPOS>ATOM
      1 C10          3.5580    24.8800   -11.4910 c3         1 P4B      -0.090100
      2 C02          1.9560    22.1070    -9.3670 c3         1 P4B       0.143800
      3 C03          0.6510    22.3660   -10.1010 c3         1 P4B      -0.051400
      4 C04          0.7210    23.5850   -11.0180 c3         1 P4B       0.046500
      5 C05         -0.6730    24.0200   -11.5570 c          1 P4B       0.908600
      6 C09          2.4980    24.4970   -12.5150 c3         1 P4B       0.412300
      7 N01          1.8420    20.9400    -8.5020 n8         1 P4B      -0.892800
      8 N08          1.7110    23.3730   -12.0670 n7         1 P4B      -0.878200
      9 O21          1.7470    25.6450   -12.8460 oh         1 P4B      -0.705800
     10 H102         4.2430    24.0500   -11.3240 hc         1 P4B       0.024033
     11 H101         4.1400    25.7330   -11.8440 hc         1 P4B       0.024033
     12 H103         3.1150    25.1560   -10.5310 hc         1 P4B       0.024033
     13 H021         2.7460    21.9180   -10.0970 h1         1 P4B       0.024700
     14 H022         2.2430    23.0220    -8.8270 h1         1 P4B       0.024700
     15 H032        -0.1450    22.5140    -9.3690 hc         1 P4B       0.048700
     16 H031         0.3810    21.4760   -10.6800 hc         1 P4B       0.048700
     17 H041         1.0680    24.4240   -10.3990 h1         1 P4B       0.039700
     18 H1           3.0270    24.1300   -13.4090 h2         1 P4B       0.007700
     19 H2           2.7310    20.7620    -8.0500 hn         1 P4B       0.318800
     20 H012         1.1900    21.1400    -7.7530 hn         1 P4B       0.318800
     21 H3           1.2860    22.9090   -12.8580 hn         1 P4B       0.366800
     22 H211         0.7980    25.3510   -12.8710 ho         1 P4B       0.482000
     23 O06         -1.6810    23.7070   -10.9080 o          1 P4B      -0.822300
     24 O07         -0.6730    24.6980   -12.6200 o          1 P4B      -0.822300
@<TRIPOS>BOND
     1     1     6 1   
     2     1    10 1   
     3     1    11 1   
     4     1    12 1   
     5     2     3 1   
     6     2     7 1   
     7     2    13 1   
     8     2    14 1   
     9     3     4 1   
    10     3    15 1   
    11     3    16 1   
    12     4     5 1   
    13     4     8 1   
    14     4    17 1   
    15     5    23 1   
    16     5    24 1   
    17     6     8 1   
    18     6     9 1   
    19     6    18 1   
    20     7    19 1   
    21     7    20 1   
    22     8    21 1   
    23     9    22 1   
@<TRIPOS>SUBSTRUCTURE
     1 P4B         1 TEMP              0 ****  ****    0 ROOT
