@<TRIPOS>MOLECULE
P4B
   24    23     1     0     0
SMALL
No Charge or Current Charge


@<TRIPOS>ATOM
      1 C10          3.0020    25.7400   -11.7310 c3         1 P4B      -0.090100
      2 C02          1.9010    21.6090    -9.3700 c3         1 P4B       0.143800
      3 C03          0.7200    22.2820   -10.1060 c3         1 P4B      -0.051400
      4 C04          1.0830    23.6330   -10.7770 c3         1 P4B       0.046500
      5 C05         -0.2420    24.3840   -11.2010 c          1 P4B       0.698000
      6 C09          2.6930    24.4990   -12.5970 c3         1 P4B       0.435500
      7 N01          1.4870    20.3710    -8.6780 n8         1 P4B      -1.003200
      8 N08          2.1150    23.3900   -11.8670 n7         1 P4B      -0.933400
      9 O21          1.7360    24.7910   -13.5640 oh         1 P4B      -0.768000
     10 H102         3.6730    25.4750   -10.9050 hc         1 P4B       0.024033
     11 H101         3.5030    26.5050   -12.3360 hc         1 P4B       0.024033
     12 H103         2.0920    26.1860   -11.3130 hc         1 P4B       0.024033
     13 H021         2.6960    21.3580   -10.0860 h1         1 P4B       0.024700
     14 H022         2.3140    22.3040    -8.6250 h1         1 P4B       0.024700
     15 H032        -0.0840    22.4590    -9.3810 hc         1 P4B       0.048700
     16 H031         0.3160    21.5960   -10.8620 hc         1 P4B       0.048700
     17 H041         1.5340    24.2570    -9.9930 h1         1 P4B       0.039700
     18 H1           3.6070    24.1730   -13.1080 h2         1 P4B       0.007700
     19 H2           2.2910    19.9950    -8.1600 hn         1 P4B       0.374000
     20 H012         0.8130    20.6100    -7.9420 hn         1 P4B       0.374000
     21 H3           1.7370    22.7430   -12.5660 hn         1 P4B       0.422000
     22 H211         0.8760    24.6160   -13.0890 ho         1 P4B       0.521000
     23 O06         -0.8190    25.0650   -10.3650 o          1 P4B      -0.717000
     24 O07         -0.5640    24.3630   -12.3830 o          1 P4B      -0.717000
@<TRIPOS>BOND
     1     1     6 1   
     2     1    10 1   
     3     1    11 1   
     4     1    12 1   
     5     2     3 1   
     6     2     7 1   
     7     2    13 1   
     8     2    14 1   
     9     3     4 1   
    10     3    15 1   
    11     3    16 1   
    12     4     5 1   
    13     4     8 1   
    14     4    17 1   
    15     5    23 1   
    16     5    24 1   
    17     6     8 1   
    18     6     9 1   
    19     6    18 1   
    20     7    19 1   
    21     7    20 1   
    22     8    21 1   
    23     9    22 1   
@<TRIPOS>SUBSTRUCTURE
     1 P4B         1 TEMP              0 ****  ****    0 ROOT
