@<TRIPOS>MOLECULE
P4C
   50    49     1     0     0
SMALL
No Charge or Current Charge


@<TRIPOS>ATOM
      1 O1           0.7710    -0.5730     9.5910 oh         1 P4C      -0.709000
      2 C2          -0.1670    -1.3040     8.7770 c3         1 P4C       0.163600
      3 C3          -1.0220    -0.3550     7.8940 c3         1 P4C       0.160600
      4 O4          -0.1800     0.2560     6.8960 os         1 P4C      -0.433000
      5 C5          -0.8640     1.1710     6.0160 c3         1 P4C       0.162600
      6 C6           0.1460     1.7400     4.9910 c3         1 P4C       0.161600
      7 O7           0.4920     0.7070     4.0470 os         1 P4C      -0.434000
      8 C8           1.4390     1.1120     3.0390 c3         1 P4C       0.162600
      9 C9           1.7090    -0.0800     2.0910 c3         1 P4C       0.161600
     10 O10          0.5480    -0.2980     1.2650 os         1 P4C      -0.434000
     11 C11          0.6710    -1.3960     0.3390 c3         1 P4C       0.161600
     12 C12         -0.6320    -1.5090    -0.4870 c3         1 P4C       0.161600
     13 O13         -0.6980    -0.4080    -1.4160 os         1 P4C      -0.435000
     14 C14         -1.8790    -0.3940    -2.2420 c3         1 P4C       0.162600
     15 C15         -1.8150     0.8240    -3.1940 c3         1 P4C       0.160600
     16 O16         -0.8130     0.5830    -4.2010 os         1 P4C      -0.436000
     17 C17         -0.6470     1.6570    -5.1480 c3         1 P4C       0.161600
     18 C18          0.4450     1.2650    -6.1710 c3         1 P4C       0.162600
     19 O19         -0.0710     0.2360    -7.0400 os         1 P4C      -0.443000
     20 C20          0.8610    -0.2290    -8.0450 c3         1 P4C       0.027600
     21 C21          0.2430    -1.3330    -8.9250 c          1 P4C       0.581900
     22 O22          0.7500    -1.7270    -9.9720 o          1 P4C      -0.516100
     23 HO1          1.3140    -1.2410    10.0720 ho         1 P4C       0.499000
     24 H21A         0.3610    -2.0150     8.1270 h1         1 P4C       0.024700
     25 H22         -0.8440    -1.8840     9.4170 h1         1 P4C       0.024700
     26 H31         -1.8180    -0.9400     7.4130 h1         1 P4C       0.025700
     27 H32         -1.4960     0.4070     8.5270 h1         1 P4C       0.025700
     28 H51         -1.6830     0.6680     5.4840 h1         1 P4C       0.027700
     29 H52         -1.2910     2.0020     6.5920 h1         1 P4C       0.027700
     30 H61         -0.3180     2.5880     4.4710 h1         1 P4C       0.027700
     31 H62          1.0360     2.1080     5.5180 h1         1 P4C       0.027700
     32 H81          1.0580     1.9640     2.4600 h1         1 P4C       0.027700
     33 H82          2.3850     1.4140     3.5070 h1         1 P4C       0.027700
     34 H91          2.5800     0.1560     1.4660 h1         1 P4C       0.028200
     35 H92          1.9460    -0.9740     2.6830 h1         1 P4C       0.028200
     36 H111         1.5230    -1.2480    -0.3370 h1         1 P4C       0.027700
     37 H112         0.8270    -2.3360     0.8850 h1         1 P4C       0.027700
     38 H121        -0.6260    -2.4630    -1.0290 h1         1 P4C       0.028200
     39 H122        -1.4970    -1.5060     0.1900 h1         1 P4C       0.028200
     40 H141        -1.9600    -1.3170    -2.8320 h1         1 P4C       0.028200
     41 H142        -2.7780    -0.3080    -1.6170 h1         1 P4C       0.028200
     42 H151        -2.7990     0.9590    -3.6620 h1         1 P4C       0.029200
     43 H152        -1.5850     1.7300    -2.6160 h1         1 P4C       0.029200
     44 H171        -1.5870     1.8660    -5.6760 h1         1 P4C       0.029700
     45 H172        -0.3350     2.5740    -4.6310 h1         1 P4C       0.029700
     46 H181         0.7190     2.1540    -6.7540 h1         1 P4C       0.033700
     47 H182         1.3400     0.9180    -5.6370 h1         1 P4C       0.033700
     48 H201         1.1650     0.5940    -8.7040 h1         1 P4C       0.051200
     49 H202         1.7570    -0.6500    -7.5710 h1         1 P4C       0.051200
     50 H21         -0.6990    -1.7830    -8.5400 h4         1 P4C       0.008200
@<TRIPOS>BOND
     1     1     2 1   
     2     1    23 1   
     3     2     3 1   
     4     2    24 1   
     5     2    25 1   
     6     3     4 1   
     7     3    26 1   
     8     3    27 1   
     9     4     5 1   
    10     5     6 1   
    11     5    28 1   
    12     5    29 1   
    13     6     7 1   
    14     6    30 1   
    15     6    31 1   
    16     7     8 1   
    17     8     9 1   
    18     8    32 1   
    19     8    33 1   
    20     9    10 1   
    21     9    34 1   
    22     9    35 1   
    23    10    11 1   
    24    11    12 1   
    25    11    36 1   
    26    11    37 1   
    27    12    13 1   
    28    12    38 1   
    29    12    39 1   
    30    13    14 1   
    31    14    15 1   
    32    14    40 1   
    33    14    41 1   
    34    15    16 1   
    35    15    42 1   
    36    15    43 1   
    37    16    17 1   
    38    17    18 1   
    39    17    44 1   
    40    17    45 1   
    41    18    19 1   
    42    18    46 1   
    43    18    47 1   
    44    19    20 1   
    45    20    21 1   
    46    20    48 1   
    47    20    49 1   
    48    21    22 2   
    49    21    50 1   
@<TRIPOS>SUBSTRUCTURE
     1 P4C         1 TEMP              0 ****  ****    0 ROOT
