@<TRIPOS>MOLECULE
P4C
   50    49     1     0     0
SMALL
abcg2


@<TRIPOS>ATOM
      1 O1           0.1630    -0.9530     8.7810 oh         1 P4C      -0.709000
      2 C2          -0.9680    -1.0940     7.9510 c3         1 P4C       0.163600
      3 C3          -1.2180     0.1960     7.2140 c3         1 P4C       0.160600
      4 O4          -0.1550     0.4600     6.3330 os         1 P4C      -0.433000
      5 C5          -0.3600     1.6200     5.5680 c3         1 P4C       0.162600
      6 C6           0.8050     1.8270     4.6350 c3         1 P4C       0.161600
      7 O7           0.8740     0.7640     3.7190 os         1 P4C      -0.434000
      8 C8           1.9120     0.9180     2.7850 c3         1 P4C       0.162600
      9 C9           2.0320    -0.3250     1.9430 c3         1 P4C       0.161600
     10 O10          0.8580    -0.5160     1.1950 os         1 P4C      -0.434000
     11 C11          0.9310    -1.6420     0.3580 c3         1 P4C       0.161600
     12 C12         -0.3870    -1.8470    -0.3430 c3         1 P4C       0.161600
     13 O13         -0.6460    -0.7680    -1.2030 os         1 P4C      -0.435000
     14 C14         -1.8470    -0.9200    -1.9160 c3         1 P4C       0.162600
     15 C15         -2.0710     0.2790    -2.7990 c3         1 P4C       0.160600
     16 O16         -1.0750     0.3360    -3.7890 os         1 P4C      -0.436000
     17 C17         -1.2260     1.4410    -4.6420 c3         1 P4C       0.161600
     18 C18         -0.1050     1.4670    -5.6470 c3         1 P4C       0.162600
     19 O19         -0.1990     0.3450    -6.4940 os         1 P4C      -0.443000
     20 C20          0.8030     0.3180    -7.4670 c3         1 P4C       0.027600
     21 C21          0.6500    -0.9410    -8.2770 c          1 P4C       0.581900
     22 O22          1.2970    -1.1730    -9.2650 o          1 P4C      -0.516100
     23 HO1          0.2770    -1.7720     9.2690 ho         1 P4C       0.499000
     24 H21A        -0.8420    -1.9090     7.2260 h1         1 P4C       0.024700
     25 H22         -1.8740    -1.3200     8.5290 h1         1 P4C       0.024700
     26 H31         -2.1670     0.1010     6.6680 h1         1 P4C       0.025700
     27 H32         -1.3470     1.0190     7.9330 h1         1 P4C       0.025700
     28 H51         -1.2940     1.5520     4.9910 h1         1 P4C       0.027700
     29 H52         -0.4470     2.5100     6.2070 h1         1 P4C       0.027700
     30 H61          0.6630     2.7880     4.1210 h1         1 P4C       0.027700
     31 H62          1.7400     1.9100     5.2090 h1         1 P4C       0.027700
     32 H81          1.7400     1.7960     2.1440 h1         1 P4C       0.027700
     33 H82          2.8770     1.0770     3.2870 h1         1 P4C       0.027700
     34 H91          2.9060    -0.2090     1.2870 h1         1 P4C       0.028200
     35 H92          2.2310    -1.1940     2.5870 h1         1 P4C       0.028200
     36 H111         1.7380    -1.5310    -0.3800 h1         1 P4C       0.027700
     37 H112         1.1500    -2.5510     0.9350 h1         1 P4C       0.027700
     38 H121        -0.3340    -2.7940    -0.8990 h1         1 P4C       0.028200
     39 H122        -1.1900    -1.9610     0.4010 h1         1 P4C       0.028200
     40 H141        -1.8320    -1.8380    -2.5220 h1         1 P4C       0.028200
     41 H142        -2.7060    -1.0040    -1.2350 h1         1 P4C       0.028200
     42 H151        -3.0700     0.1940    -3.2480 h1         1 P4C       0.029200
     43 H152        -2.0730     1.1960    -2.1920 h1         1 P4C       0.029200
     44 H171        -2.1950     1.4130    -5.1600 h1         1 P4C       0.029700
     45 H172        -1.1960     2.3840    -4.0790 h1         1 P4C       0.029700
     46 H181        -0.1790     2.4000    -6.2220 h1         1 P4C       0.033700
     47 H182         0.8660     1.4850    -5.1320 h1         1 P4C       0.033700
     48 H201         0.7600     1.1880    -8.1380 h1         1 P4C       0.051200
     49 H202         1.8100     0.3190    -7.0210 h1         1 P4C       0.051200
     50 H21         -0.0990    -1.6560    -7.8910 h4         1 P4C       0.008200
@<TRIPOS>BOND
     1     1     2 1   
     2     1    23 1   
     3     2     3 1   
     4     2    24 1   
     5     2    25 1   
     6     3     4 1   
     7     3    26 1   
     8     3    27 1   
     9     4     5 1   
    10     5     6 1   
    11     5    28 1   
    12     5    29 1   
    13     6     7 1   
    14     6    30 1   
    15     6    31 1   
    16     7     8 1   
    17     8     9 1   
    18     8    32 1   
    19     8    33 1   
    20     9    10 1   
    21     9    34 1   
    22     9    35 1   
    23    10    11 1   
    24    11    12 1   
    25    11    36 1   
    26    11    37 1   
    27    12    13 1   
    28    12    38 1   
    29    12    39 1   
    30    13    14 1   
    31    14    15 1   
    32    14    40 1   
    33    14    41 1   
    34    15    16 1   
    35    15    42 1   
    36    15    43 1   
    37    16    17 1   
    38    17    18 1   
    39    17    44 1   
    40    17    45 1   
    41    18    19 1   
    42    18    46 1   
    43    18    47 1   
    44    19    20 1   
    45    20    21 1   
    46    20    48 1   
    47    20    49 1   
    48    21    22 2   
    49    21    50 1   
@<TRIPOS>SUBSTRUCTURE
     1 P4C         1 TEMP              0 ****  ****    0 ROOT
