@<TRIPOS>MOLECULE
P4D
   37    37     1     0     0
SMALL
No Charge or Current Charge


@<TRIPOS>ATOM
      1 C1          -2.6470     1.9200     0.1770 c3         1 P4D      -0.030100
      2 N1          -0.9010     3.1410     1.4720 n8         1 P4D      -0.952200
      3 C2          -1.2860     1.7770     0.9150 c3         1 P4D      -0.175500
      4 P3          -0.0550     0.6880    -0.0890 p5         1 P4D       1.390000
      5 C4           1.5500     0.9060     0.8270 c3         1 P4D      -0.392400
      6 C5           2.6970    -0.0980     0.4580 c3         1 P4D      -0.130700
      7 C6           3.0720    -0.0750    -1.0620 c          1 P4D       0.748000
      8 C7           3.9470     0.1030     1.3720 c3         1 P4D      -0.151400
      9 C8           4.9580    -1.0600     1.1940 c          1 P4D       0.720000
     10 CG          -3.3950     0.6040    -0.0160 ca         1 P4D      -0.057300
     11 CZ          -4.8150    -1.8070    -0.3690 ca         1 P4D       0.095100
     12 O31          0.0760     1.2100    -1.4890 o          1 P4D      -0.824500
     13 O32         -0.4520    -0.7570    -0.0400 o          1 P4D      -0.824500
     14 O61          2.9000    -1.0970    -1.7140 o          1 P4D      -0.773000
     15 O62          3.5230     0.9540    -1.5490 o          1 P4D      -0.773000
     16 O81          4.8080    -2.0680     1.8690 o          1 P4D      -0.784000
     17 O82          5.8630    -0.9320     0.3830 o          1 P4D      -0.784000
     18 CD1         -3.5920     0.0750    -1.3090 ca         1 P4D      -0.050000
     19 CD2         -3.9210    -0.0830     1.0970 ca         1 P4D      -0.050000
     20 CE1         -4.2990    -1.1280    -1.4840 ca         1 P4D      -0.176500
     21 CE2         -4.6280    -1.2850     0.9190 ca         1 P4D      -0.176500
     22 H1          -3.2970     2.5980     0.7450 hc         1 P4D       0.015200
     23 H1A         -2.4810     2.4120    -0.7900 hc         1 P4D       0.015200
     24 HN1         -0.6570     3.7780     0.7040 hn         1 P4D       0.357000
     25 HN1A        -1.7150     3.5830     1.9150 hn         1 P4D       0.357000
     26 H2          -1.4620     1.1410     1.7920 h1         1 P4D       0.051700
     27 H4           1.8870     1.9350     0.6590 hc         1 P4D       0.013200
     28 H4A          1.3100     0.8130     1.8920 hc         1 P4D       0.013200
     29 H5           2.3120    -1.1030     0.6730 hc         1 P4D       0.046700
     30 H7           4.3950     1.0630     1.0850 hc         1 P4D      -0.012800
     31 H7A          3.5590     0.0970     2.3990 hc         1 P4D      -0.012800
     32 HOH         -5.5290    -3.1790    -1.4940 ho         1 P4D       0.444000
     33 HD1         -3.1950     0.5960    -2.1780 ha         1 P4D       0.124500
     34 HD2         -3.7850     0.3190     2.0990 ha         1 P4D       0.124500
     35 HE1         -4.4420    -1.5240    -2.4860 ha         1 P4D       0.093000
     36 HE2         -5.0310    -1.8090     1.7830 ha         1 P4D       0.093000
     37 OH          -5.5020    -2.9710    -0.5350 oh         1 P4D      -0.569100
@<TRIPOS>BOND
     1     1     3 1   
     2     1    10 1   
     3     1    22 1   
     4     1    23 1   
     5     2     3 1   
     6     2    24 1   
     7     2    25 1   
     8     3     4 1   
     9     3    26 1   
    10     4     5 1   
    11     4    12 1   
    12     4    13 1   
    13     5     6 1   
    14     5    27 1   
    15     5    28 1   
    16     6     7 1   
    17     6     8 1   
    18     6    29 1   
    19     7    14 1   
    20     7    15 1   
    21     8     9 1   
    22     8    30 1   
    23     8    31 1   
    24     9    16 1   
    25     9    17 1   
    26    10    18 ar  
    27    10    19 ar  
    28    11    20 ar  
    29    11    21 ar  
    30    11    37 1   
    31    18    20 ar  
    32    18    33 1   
    33    19    21 ar  
    34    19    34 1   
    35    20    35 1   
    36    21    36 1   
    37    32    37 1   
@<TRIPOS>SUBSTRUCTURE
     1 P4D         1 TEMP              0 ****  ****    0 ROOT
