@<TRIPOS>MOLECULE
P4D
   37    37     1     0     0
SMALL
bcc


@<TRIPOS>ATOM
      1 C1          -2.6150     1.8290     0.2950 c3         1 P4D      -0.030100
      2 N1          -0.6210     2.9750     1.2230 n8         1 P4D      -0.841800
      3 C2          -1.2410     1.6770     0.9710 c3         1 P4D      -0.017700
      4 P3          -0.0880     0.6340    -0.0580 p5         1 P4D       1.074400
      5 C4           1.5320     0.9040     0.7720 c3         1 P4D      -0.234600
      6 C5           2.6130    -0.1210     0.4050 c3         1 P4D      -0.130700
      7 C6           2.9720    -0.0150    -1.0860 c          1 P4D       0.958600
      8 C7           3.8380     0.0980     1.2850 c3         1 P4D      -0.151400
      9 C8           5.0190    -0.8550     1.0540 c          1 P4D       0.930600
     10 CG          -3.3980     0.5640     0.0830 ca         1 P4D      -0.057300
     11 CZ          -4.8970    -1.7800    -0.3270 ca         1 P4D       0.095100
     12 O31         -0.0770     1.2580    -1.4450 o          1 P4D      -0.824500
     13 O32         -0.4780    -0.8210     0.1060 o          1 P4D      -0.824500
     14 O61          2.5130    -0.8720    -1.8670 o          1 P4D      -0.878300
     15 O62          3.6930     0.9550    -1.4160 o          1 P4D      -0.878300
     16 O81          4.8210    -1.8830     0.3770 o          1 P4D      -0.889300
     17 O82          6.1010    -0.5340     1.5960 o          1 P4D      -0.889300
     18 CD1         -3.3390    -0.1270    -1.1230 ca         1 P4D      -0.068000
     19 CD2         -4.2190     0.0470     1.0810 ca         1 P4D      -0.068000
     20 CE1         -4.0820    -1.2770    -1.3380 ca         1 P4D      -0.194500
     21 CE2         -4.9600    -1.1120     0.8920 ca         1 P4D      -0.194500
     22 H1          -3.2110     2.5140     0.9090 hc         1 P4D       0.015200
     23 H1A         -2.4640     2.3270    -0.6660 hc         1 P4D       0.015200
     24 HN1         -0.3900     3.4050     0.3350 hn         1 P4D       0.301800
     25 HN1A        -1.2990     3.5940     1.6550 hn         1 P4D       0.301800
     26 H2          -1.3780     1.1740     1.9360 h1         1 P4D       0.051700
     27 H4           1.8930     1.9140     0.5570 hc         1 P4D       0.013200
     28 H4A          1.3590     0.8710     1.8540 hc         1 P4D       0.013200
     29 H5           2.2110    -1.1180     0.5970 hc         1 P4D       0.046700
     30 H7           4.1920     1.1270     1.1710 hc         1 P4D      -0.012800
     31 H7A          3.5430     0.0090     2.3390 hc         1 P4D      -0.012800
     32 HOH         -5.5210    -3.2540    -1.3690 ho         1 P4D       0.405000
     33 HD1         -2.6930     0.2420    -1.9090 ha         1 P4D       0.142500
     34 HD2         -4.2920     0.5620     2.0320 ha         1 P4D       0.142500
     35 HE1         -4.0260    -1.7840    -2.2950 ha         1 P4D       0.111000
     36 HE2         -5.5960    -1.4920     1.6830 ha         1 P4D       0.111000
     37 OH          -5.6440    -2.8980    -0.4820 oh         1 P4D      -0.530100
@<TRIPOS>BOND
     1     1     3 1   
     2     1    10 1   
     3     1    22 1   
     4     1    23 1   
     5     2     3 1   
     6     2    24 1   
     7     2    25 1   
     8     3     4 1   
     9     3    26 1   
    10     4     5 1   
    11     4    12 1   
    12     4    13 1   
    13     5     6 1   
    14     5    27 1   
    15     5    28 1   
    16     6     7 1   
    17     6     8 1   
    18     6    29 1   
    19     7    14 1   
    20     7    15 1   
    21     8     9 1   
    22     8    30 1   
    23     8    31 1   
    24     9    16 1   
    25     9    17 1   
    26    10    18 ar  
    27    10    19 ar  
    28    11    20 ar  
    29    11    21 ar  
    30    11    37 1   
    31    18    20 ar  
    32    18    33 1   
    33    19    21 ar  
    34    19    34 1   
    35    20    35 1   
    36    21    36 1   
    37    32    37 1   
@<TRIPOS>SUBSTRUCTURE
     1 P4D         1 TEMP              0 ****  ****    0 ROOT
