@<TRIPOS>MOLECULE
P4E
   26    26     1     0     0
SMALL
bcc


@<TRIPOS>ATOM
      1 C01          4.9970     0.3330     0.2990 ca         1 P4E      -0.155000
      2 C02          4.5730    -0.9110    -0.1460 ca         1 P4E      -0.131500
      3 C03          3.2310    -1.1330    -0.4190 ca         1 P4E      -0.134500
      4 C04          2.2800    -0.1220    -0.2550 ca         1 P4E      -0.002800
      5 C05          2.7240     1.1280     0.1920 ca         1 P4E      -0.134500
      6 C06          4.0630     1.3510     0.4660 ca         1 P4E      -0.131500
      7 C07          0.8760    -0.4150    -0.5600 ce         1 P4E      -0.193200
      8 C08         -0.1630     0.4110    -0.4250 c2         1 P4E      -0.066200
      9 C09         -1.5710     0.0680    -0.7730 c3         1 P4E      -0.044200
     10 C10         -2.5290     0.2180     0.4140 c3         1 P4E       0.016500
     11 C11         -3.9940    -0.0070    -0.0450 c          1 P4E       0.903600
     12 O12         -4.6680    -0.8550     0.5720 o          1 P4E      -0.837800
     13 N32         -2.0740    -0.6150     1.5150 n8         1 P4E      -0.886800
     14 H01          6.0430     0.5110     0.5120 ha         1 P4E       0.115000
     15 H02          5.2890    -1.7120    -0.2830 ha         1 P4E       0.116500
     16 H03          2.9100    -2.1080    -0.7660 ha         1 P4E       0.128500
     17 H05          2.0200     1.9400     0.3250 ha         1 P4E       0.128500
     18 H06          4.3830     2.3260     0.8110 ha         1 P4E       0.116500
     19 H109        -1.9190     0.7260    -1.5730 hc         1 P4E       0.054200
     20 H209        -1.6230    -0.9540    -1.1630 hc         1 P4E       0.054200
     21 H10         -2.4700     1.2640     0.7470 h1         1 P4E       0.040700
     22 HN32        -2.8120    -0.6560     2.2080 hn         1 P4E       0.327800
     23 H107         0.6860    -1.4190    -0.9310 ha         1 P4E       0.117000
     24 H108        -0.0090     1.4190    -0.0460 ha         1 P4E       0.107000
     25 OXT         -4.3830     0.7050    -0.9940 o          1 P4E      -0.837800
     26 H2          -1.9900    -1.5700     1.1830 hn         1 P4E       0.327800
@<TRIPOS>BOND
     1     1     2 ar  
     2     1     6 ar  
     3     1    14 1   
     4     2     3 ar  
     5     2    15 1   
     6     3     4 ar  
     7     3    16 1   
     8     4     5 ar  
     9     4     7 1   
    10     5     6 ar  
    11     5    17 1   
    12     6    18 1   
    13     7     8 2   
    14     7    23 1   
    15     8     9 1   
    16     8    24 1   
    17     9    10 1   
    18     9    19 1   
    19     9    20 1   
    20    10    11 1   
    21    10    13 1   
    22    10    21 1   
    23    11    12 1   
    24    11    25 1   
    25    13    22 1   
    26    13    26 1   
@<TRIPOS>SUBSTRUCTURE
     1 P4E         1 TEMP              0 ****  ****    0 ROOT
