@<TRIPOS>MOLECULE
P4E
   26    26     1     0     0
SMALL
No Charge or Current Charge


@<TRIPOS>ATOM
      1 C01          5.0700     0.5190     0.1560 ca         1 P4E      -0.137000
      2 C02          4.7150    -0.1950    -1.0000 ca         1 P4E      -0.113500
      3 C03          3.3710    -0.5380    -1.2300 ca         1 P4E      -0.116500
      4 C04          2.3690    -0.1750    -0.3080 ca         1 P4E      -0.002800
      5 C05          2.7350     0.5470     0.8490 ca         1 P4E      -0.116500
      6 C06          4.0800     0.8910     1.0790 ca         1 P4E      -0.113500
      7 C07          0.9540    -0.5570    -0.5920 ce         1 P4E      -0.243200
      8 C08         -0.0840    -0.4910     0.2740 c2         1 P4E      -0.116200
      9 C09         -1.5140    -0.8930    -0.0370 c3         1 P4E      -0.044200
     10 C10         -2.5230     0.2830     0.0580 c3         1 P4E       0.016500
     11 C11         -3.9160    -0.1390    -0.5690 c          1 P4E       0.693000
     12 O12         -4.6510    -0.8700     0.0830 o          1 P4E      -0.732500
     13 N32         -2.5700     0.8360     1.4620 n8         1 P4E      -0.997200
     14 H01          6.1090     0.7850     0.3340 ha         1 P4E       0.097000
     15 H02          5.4800    -0.4830    -1.7180 ha         1 P4E       0.098500
     16 H03          3.1100    -1.0910    -2.1290 ha         1 P4E       0.110500
     17 H05          1.9880     0.8560     1.5730 ha         1 P4E       0.110500
     18 H06          4.3520     1.4480     1.9720 ha         1 P4E       0.098500
     19 H109        -1.5670    -1.3130    -1.0490 hc         1 P4E       0.054200
     20 H209        -1.8300    -1.6980     0.6380 hc         1 P4E       0.054200
     21 H10         -2.1330     1.0870    -0.5820 h1         1 P4E       0.040700
     22 HN32        -3.1930     1.6530     1.4780 hn         1 P4E       0.383000
     23 H107         0.7820    -0.9310    -1.6030 ha         1 P4E       0.167000
     24 H108         0.0530    -0.1390     1.2960 ha         1 P4E       0.157000
     25 OXT         -4.2530     0.3710    -1.6290 o          1 P4E      -0.732500
     26 H2          -3.0630     0.1590     2.0580 hn         1 P4E       0.383000
@<TRIPOS>BOND
     1     1     2 ar  
     2     1     6 ar  
     3     1    14 1   
     4     2     3 ar  
     5     2    15 1   
     6     3     4 ar  
     7     3    16 1   
     8     4     5 ar  
     9     4     7 1   
    10     5     6 ar  
    11     5    17 1   
    12     6    18 1   
    13     7     8 2   
    14     7    23 1   
    15     8     9 1   
    16     8    24 1   
    17     9    10 1   
    18     9    19 1   
    19     9    20 1   
    20    10    11 1   
    21    10    13 1   
    22    10    21 1   
    23    11    12 1   
    24    11    25 1   
    25    13    22 1   
    26    13    26 1   
@<TRIPOS>SUBSTRUCTURE
     1 P4E         1 TEMP              0 ****  ****    0 ROOT
