@<TRIPOS>MOLECULE
P4F
   20    19     1     0     0
SMALL
bcc


@<TRIPOS>ATOM
      1 C            1.1680    -1.4590     0.6920 c          1 P4F       0.937600
      2 N           -0.5280    -0.1390    -0.5290 n8         1 P4F      -0.906800
      3 O            1.7750    -1.5440    -0.3930 o          1 P4F      -0.862800
      4 CA           0.0370    -0.4000     0.7780 c3         1 P4F       0.031500
      5 CB           0.6490     0.8360     1.4970 c3         1 P4F      -0.204400
      6 CG          -0.3510     1.9360     1.6980 c          1 P4F       0.574100
      7 FAA         -1.5040     0.7410     3.3670 f          1 P4F      -0.279800
      8 OAB         -0.8890     3.0840     5.5140 o          1 P4F      -0.907500
      9 PAI          0.0950     2.7080     4.4150 p5         1 P4F       1.120700
     10 OAJ          1.0180     1.5380     4.7410 o          1 P4F      -0.907500
     11 FAN         -2.1700     2.7720     2.9050 f          1 P4F      -0.279800
     12 OAO          0.7570     3.8720     3.6850 o          1 P4F      -0.907500
     13 CD1         -1.0400     2.0040     3.0440 c3         1 P4F       0.208400
     14 OD2         -0.5970     2.7570     0.8400 o          1 P4F      -0.617100
     15 OXT          1.3970    -2.0990     1.7360 o          1 P4F      -0.862800
     16 HN          -1.1510     0.6580    -0.5050 hn         1 P4F       0.319800
     17 HNA          0.2220     0.0940    -1.1670 hn         1 P4F       0.319800
     18 HA          -0.7530    -0.8010     1.4180 h1         1 P4F       0.057700
     19 HB           1.0620     0.5290     2.4570 hc         1 P4F       0.082700
     20 HBA          1.4660     1.2190     0.8780 hc         1 P4F       0.082700
@<TRIPOS>BOND
     1     1     3 1   
     2     1     4 1   
     3     1    15 1   
     4     2     4 1   
     5     2    16 1   
     6     2    17 1   
     7     4     5 1   
     8     4    18 1   
     9     5     6 1   
    10     5    19 1   
    11     5    20 1   
    12     6    13 1   
    13     6    14 2   
    14     7    13 1   
    15     8     9 1   
    16     9    10 1   
    17     9    12 1   
    18     9    13 1   
    19    11    13 1   
@<TRIPOS>SUBSTRUCTURE
     1 P4F         1 TEMP              0 ****  ****    0 ROOT
