@<TRIPOS>MOLECULE
P4F
   20    19     1     0     0
SMALL
No Charge or Current Charge


@<TRIPOS>ATOM
      1 C            0.9190    -1.7100     0.8360 c          1 P4F       0.727000
      2 N           -0.3680     0.0120    -0.6890 n8         1 P4F      -1.017200
      3 O            2.0410    -1.7050     0.3410 o          1 P4F      -0.757500
      4 CA           0.0220    -0.4020     0.7050 c3         1 P4F       0.031500
      5 CB           0.6650     0.8080     1.4310 c3         1 P4F      -0.204400
      6 CG          -0.3730     1.8880     1.7920 c          1 P4F       0.574100
      7 FAA         -1.0670     0.5650     3.6850 f          1 P4F      -0.158500
      8 OAB         -0.3800     2.8050     5.6580 o          1 P4F      -0.907500
      9 PAI          0.0470     2.9290     4.2310 p5         1 P4F       1.278500
     10 OAJ          1.4730     2.5100     4.1060 o          1 P4F      -0.907500
     11 FAN         -2.3090     2.2820     3.1620 f          1 P4F      -0.158500
     12 OAO         -0.0990     4.3500     3.7990 o          1 P4F      -0.907500
     13 CD1         -1.0240     1.8300     3.1830 c3         1 P4F      -0.192000
     14 OD2         -0.7000     2.7270     0.9560 o          1 P4F      -0.617100
     15 OXT          0.4380    -2.6960     1.3790 o          1 P4F      -0.757500
     16 HN          -0.7560     0.9630    -0.6530 hn         1 P4F       0.375000
     17 HNA          0.4860     0.1170    -1.2510 hn         1 P4F       0.375000
     18 HA          -0.9100    -0.6340     1.2410 h1         1 P4F       0.057700
     19 HB           1.1080     0.4230     2.3560 hc         1 P4F       0.082700
     20 HBA          1.4510     1.2420     0.8030 hc         1 P4F       0.082700
@<TRIPOS>BOND
     1     1     3 1   
     2     1     4 1   
     3     1    15 1   
     4     2     4 1   
     5     2    16 1   
     6     2    17 1   
     7     4     5 1   
     8     4    18 1   
     9     5     6 1   
    10     5    19 1   
    11     5    20 1   
    12     6    13 1   
    13     6    14 2   
    14     7    13 1   
    15     8     9 1   
    16     9    10 1   
    17     9    12 1   
    18     9    13 1   
    19    11    13 1   
@<TRIPOS>SUBSTRUCTURE
     1 P4F         1 TEMP              0 ****  ****    0 ROOT
