@<TRIPOS>MOLECULE
P4G
   29    28     1     0     0
SMALL
abcg2


@<TRIPOS>ATOM
      1 C8          -4.4910     1.4130    -0.9020 c3         1 P4G      -0.091100
      2 C7          -3.8130     0.8850     0.3430 c3         1 P4G       0.161600
      3 O4          -2.7570     0.0310    -0.0290 os         1 P4G      -0.450500
      4 C6          -2.1300    -0.5760     1.0710 c3         1 P4G       0.162100
      5 C5          -1.0370    -1.4960     0.5900 c3         1 P4G       0.163100
      6 O3          -0.0030    -0.7350     0.0200 os         1 P4G      -0.438000
      7 C4           1.0090    -1.5150    -0.5630 c3         1 P4G       0.163100
      8 C3           2.1230    -0.6180    -1.0380 c3         1 P4G       0.162100
      9 O2           2.7640    -0.0290     0.0640 os         1 P4G      -0.450500
     10 C2           3.7980     0.8500    -0.3130 c3         1 P4G       0.161600
     11 C1           4.4420     1.4230     0.9290 c3         1 P4G      -0.091100
     12 H81         -3.7930     1.9650    -1.5310 hc         1 P4G       0.042033
     13 H82         -4.9210     0.6050    -1.4940 hc         1 P4G       0.042033
     14 H83         -5.2980     2.0910    -0.6220 hc         1 P4G       0.042033
     15 H71         -3.4350     1.7200     0.9500 h1         1 P4G       0.017200
     16 H72         -4.5410     0.3490     0.9690 h1         1 P4G       0.017200
     17 H61         -1.7100     0.1760     1.7540 h1         1 P4G       0.028700
     18 H62         -2.8480    -1.1690     1.6550 h1         1 P4G       0.028700
     19 H51         -0.6720    -2.0770     1.4480 h1         1 P4G       0.027700
     20 H52         -1.4480    -2.2160    -0.1340 h1         1 P4G       0.027700
     21 H41          1.4030    -2.2540     0.1500 h1         1 P4G       0.027700
     22 H42          0.6290    -2.0770    -1.4280 h1         1 P4G       0.027700
     23 H31          2.8260    -1.2210    -1.6290 h1         1 P4G       0.028700
     24 H32          1.7170     0.1500    -1.7130 h1         1 P4G       0.028700
     25 H21          4.5490     0.3240    -0.9190 h1         1 P4G       0.017200
     26 H22          3.4000     1.6610    -0.9400 h1         1 P4G       0.017200
     27 H11          5.2400     2.1100     0.6480 hc         1 P4G       0.042033
     28 H12          3.7210     1.9760     1.5330 hc         1 P4G       0.042033
     29 H13          4.8810     0.6400     1.5480 hc         1 P4G       0.042033
@<TRIPOS>BOND
     1     1     2 1   
     2     1    12 1   
     3     1    13 1   
     4     1    14 1   
     5     2     3 1   
     6     2    15 1   
     7     2    16 1   
     8     3     4 1   
     9     4     5 1   
    10     4    17 1   
    11     4    18 1   
    12     5     6 1   
    13     5    19 1   
    14     5    20 1   
    15     6     7 1   
    16     7     8 1   
    17     7    21 1   
    18     7    22 1   
    19     8     9 1   
    20     8    23 1   
    21     8    24 1   
    22     9    10 1   
    23    10    11 1   
    24    10    25 1   
    25    10    26 1   
    26    11    27 1   
    27    11    28 1   
    28    11    29 1   
@<TRIPOS>SUBSTRUCTURE
     1 P4G         1 TEMP              0 ****  ****    0 ROOT
