@<TRIPOS>MOLECULE
P4G
   29    28     1     0     0
SMALL
No Charge or Current Charge


@<TRIPOS>ATOM
      1 C8          -4.5230     1.4700    -0.9130 c3         1 P4G      -0.091100
      2 C7          -3.9020     0.9150     0.3780 c3         1 P4G       0.161600
      3 O4          -2.8690    -0.0080     0.0030 os         1 P4G      -0.450500
      4 C6          -2.1830    -0.6190     1.1140 c3         1 P4G       0.162100
      5 C5          -1.0950    -1.5790     0.5740 c3         1 P4G       0.163100
      6 O3          -0.0150    -0.8020     0.0180 os         1 P4G      -0.438000
      7 C4           1.0630    -1.5860    -0.5310 c3         1 P4G       0.163100
      8 C3           2.1540    -0.6350    -1.0800 c3         1 P4G       0.162100
      9 O2           2.8410    -0.0150     0.0270 os         1 P4G      -0.450500
     10 C2           3.8770     0.9020    -0.3560 c3         1 P4G       0.161600
     11 C1           4.5000     1.4660     0.9300 c3         1 P4G      -0.091100
     12 H81         -3.7670     1.9890    -1.5140 hc         1 P4G       0.042033
     13 H82         -4.9550     0.6610    -1.5140 hc         1 P4G       0.042033
     14 H83         -5.3210     2.1830    -0.6740 hc         1 P4G       0.042033
     15 H71         -3.4890     1.7420     0.9710 h1         1 P4G       0.017200
     16 H72         -4.6770     0.4120     0.9710 h1         1 P4G       0.017200
     17 H61         -1.7160     0.1400     1.7560 h1         1 P4G       0.028700
     18 H62         -2.8900    -1.1950     1.7260 h1         1 P4G       0.028700
     19 H51         -0.7280    -2.2000     1.4020 h1         1 P4G       0.027700
     20 H52         -1.5340    -2.2430    -0.1820 h1         1 P4G       0.027700
     21 H41          1.5000    -2.2450     0.2310 h1         1 P4G       0.027700
     22 H42          0.6950    -2.2140    -1.3530 h1         1 P4G       0.027700
     23 H31          2.8590    -1.2180    -1.6860 h1         1 P4G       0.028700
     24 H32          1.6890     0.1200    -1.7280 h1         1 P4G       0.028700
     25 H21          4.6510     0.3910    -0.9450 h1         1 P4G       0.017200
     26 H22          3.4660     1.7240    -0.9560 h1         1 P4G       0.017200
     27 H11          5.2990     2.1750     0.6850 hc         1 P4G       0.042033
     28 H12          3.7450     1.9920     1.5260 hc         1 P4G       0.042033
     29 H13          4.9290     0.6610     1.5380 hc         1 P4G       0.042033
@<TRIPOS>BOND
     1     1     2 1   
     2     1    12 1   
     3     1    13 1   
     4     1    14 1   
     5     2     3 1   
     6     2    15 1   
     7     2    16 1   
     8     3     4 1   
     9     4     5 1   
    10     4    17 1   
    11     4    18 1   
    12     5     6 1   
    13     5    19 1   
    14     5    20 1   
    15     6     7 1   
    16     7     8 1   
    17     7    21 1   
    18     7    22 1   
    19     8     9 1   
    20     8    23 1   
    21     8    24 1   
    22     9    10 1   
    23    10    11 1   
    24    10    25 1   
    25    10    26 1   
    26    11    27 1   
    27    11    28 1   
    28    11    29 1   
@<TRIPOS>SUBSTRUCTURE
     1 P4G         1 TEMP              0 ****  ****    0 ROOT
