@<TRIPOS>MOLECULE
P4H
   28    29     1     0     0
SMALL
bcc


@<TRIPOS>ATOM
      1 O1          19.8390   -20.5600   -20.7670 o          1 P4H      -0.586100
      2 C1          19.8630   -21.0270   -21.9110 c          1 P4H       0.626300
      3 C2          19.5120   -20.1350   -23.0400 ca         1 P4H      -0.164600
      4 C3          18.6950   -20.5500   -24.0860 ca         1 P4H      -0.083000
      5 C4          18.2970   -19.6470   -25.0620 ca         1 P4H      -0.157000
      6 C5          18.7200   -18.3280   -25.0180 ca         1 P4H       0.149100
      7 O2          18.3230   -17.4810   -25.9810 oh         1 P4H      -0.489100
      8 C6          19.5470   -17.9050   -23.9630 ca         1 P4H       0.033100
      9 O3          19.9170   -16.6070   -23.9920 oh         1 P4H      -0.519100
     10 C7          19.9180   -18.7990   -22.9800 ca         1 P4H      -0.127000
     11 C8          20.2160   -22.4250   -22.1320 ca         1 P4H      -0.335600
     12 C9          20.5580   -22.9380   -23.3940 ca         1 P4H      -0.002000
     13 C10         20.8750   -24.2600   -23.5850 ca         1 P4H      -0.228000
     14 C11         20.8550   -25.1320   -22.4870 ca         1 P4H       0.221100
     15 O4          21.1510   -26.4130   -22.7200 oh         1 P4H      -0.484100
     16 C12         20.5550   -24.6570   -21.2180 ca         1 P4H      -0.310000
     17 C13         20.2610   -23.3100   -21.0260 ca         1 P4H       0.265100
     18 O5          20.0190   -22.9010   -19.7870 oh         1 P4H      -0.505100
     19 H1          18.3300   -21.5670   -24.1340 ha         1 P4H       0.145000
     20 H2          17.6460   -19.9650   -25.8660 ha         1 P4H       0.154000
     21 H3          18.6810   -16.5980   -25.8310 ho         1 P4H       0.448000
     22 H4          20.4880   -16.3890   -23.2460 ho         1 P4H       0.441000
     23 H5          20.5430   -18.4590   -22.1620 ha         1 P4H       0.147000
     24 H6          20.5980   -22.2720   -24.2450 ha         1 P4H       0.141000
     25 H7          21.1440   -24.6290   -24.5650 ha         1 P4H       0.153000
     26 H8          21.1170   -26.9320   -21.9070 ho         1 P4H       0.435000
     27 H9          20.5660   -25.3200   -20.3600 ha         1 P4H       0.152000
     28 H10         19.9180   -21.9200   -19.8220 ho         1 P4H       0.481000
@<TRIPOS>BOND
     1     1     2 2   
     2     2     3 1   
     3     2    11 1   
     4     3     4 ar  
     5     3    10 ar  
     6     4     5 ar  
     7     4    19 1   
     8     5     6 ar  
     9     5    20 1   
    10     6     7 1   
    11     6     8 ar  
    12     7    21 1   
    13     8     9 1   
    14     8    10 ar  
    15     9    22 1   
    16    10    23 1   
    17    11    12 ar  
    18    11    17 ar  
    19    12    13 ar  
    20    12    24 1   
    21    13    14 ar  
    22    13    25 1   
    23    14    15 1   
    24    14    16 ar  
    25    15    26 1   
    26    16    17 ar  
    27    16    27 1   
    28    17    18 1   
    29    18    28 1   
@<TRIPOS>SUBSTRUCTURE
     1 P4H         1 TEMP              0 ****  ****    0 ROOT
