@<TRIPOS>MOLECULE
P4H
   28    29     1     0     0
SMALL
No Charge or Current Charge


@<TRIPOS>ATOM
      1 O1          20.1100   -20.5030   -20.6950 o          1 P4H      -0.586100
      2 C1          19.9960   -20.9560   -21.8300 c          1 P4H       0.626300
      3 C2          19.5400   -20.0700   -22.9660 ca         1 P4H      -0.164600
      4 C3          18.6780   -20.5610   -23.9730 ca         1 P4H      -0.065000
      5 C4          18.2460   -19.7190   -25.0130 ca         1 P4H      -0.139000
      6 C5          18.6610   -18.3810   -25.0490 ca         1 P4H       0.149100
      7 O2          18.2450   -17.5580   -26.0540 oh         1 P4H      -0.528100
      8 C6          19.5050   -17.8710   -24.0420 ca         1 P4H       0.033100
      9 O3          19.8990   -16.5570   -24.0800 oh         1 P4H      -0.558100
     10 C7          19.9370   -18.7130   -23.0010 ca         1 P4H      -0.109000
     11 C8          20.2900   -22.4140   -22.0830 ca         1 P4H      -0.335600
     12 C9          20.7100   -22.8500   -23.3600 ca         1 P4H       0.016000
     13 C10         20.9770   -24.2090   -23.5900 ca         1 P4H      -0.210000
     14 C11         20.8410   -25.1390   -22.5540 ca         1 P4H       0.221100
     15 O4          21.1020   -26.4520   -22.7870 oh         1 P4H      -0.523100
     16 C12         20.4500   -24.7150   -21.2810 ca         1 P4H      -0.292000
     17 C13         20.1870   -23.3620   -21.0450 ca         1 P4H       0.265100
     18 O5          19.8330   -22.9800   -19.7910 oh         1 P4H      -0.544100
     19 H1          18.3290   -21.5920   -23.9470 ha         1 P4H       0.127000
     20 H2          17.5850   -20.1030   -25.7860 ha         1 P4H       0.136000
     21 H3          18.6540   -16.6830   -25.8670 ho         1 P4H       0.487000
     22 H4          20.4770   -16.3710   -23.3070 ho         1 P4H       0.480000
     23 H5          20.5870   -18.3220   -22.2200 ha         1 P4H       0.129000
     24 H6          20.8430   -22.1440   -24.1780 ha         1 P4H       0.123000
     25 H7          21.2950   -24.5400   -24.5750 ha         1 P4H       0.135000
     26 H8          20.9560   -26.9420   -21.9500 ho         1 P4H       0.474000
     27 H9          20.3560   -25.4270   -20.4660 ha         1 P4H       0.134000
     28 H10         19.8630   -21.9910   -19.7960 ho         1 P4H       0.520000
@<TRIPOS>BOND
     1     1     2 2   
     2     2     3 1   
     3     2    11 1   
     4     3     4 ar  
     5     3    10 ar  
     6     4     5 ar  
     7     4    19 1   
     8     5     6 ar  
     9     5    20 1   
    10     6     7 1   
    11     6     8 ar  
    12     7    21 1   
    13     8     9 1   
    14     8    10 ar  
    15     9    22 1   
    16    10    23 1   
    17    11    12 ar  
    18    11    17 ar  
    19    12    13 ar  
    20    12    24 1   
    21    13    14 ar  
    22    13    25 1   
    23    14    15 1   
    24    14    16 ar  
    25    15    26 1   
    26    16    17 ar  
    27    16    27 1   
    28    17    18 1   
    29    18    28 1   
@<TRIPOS>SUBSTRUCTURE
     1 P4H         1 TEMP              0 ****  ****    0 ROOT
