@<TRIPOS>MOLECULE
P4I
   47    50     1     0     0
SMALL
No Charge or Current Charge


@<TRIPOS>ATOM
      1 C02          5.6150    49.2880    31.3130 cg         1 P4I       0.325000
      2 C03          5.6200    50.4940    32.0950 ca         1 P4I      -0.025000
      3 C04          5.9360    51.7280    31.4930 ca         1 P4I      -0.069000
      4 C05          5.9440    52.9040    32.2620 ca         1 P4I      -0.115000
      5 C06          5.6380    52.8530    33.6330 ca         1 P4I      -0.083000
      6 C07          5.3200    51.6230    34.2430 ca         1 P4I      -0.093300
      7 C08          4.9950    51.5570    35.7320 c3         1 P4I       0.216100
      8 C10          5.5140    50.5100    37.9020 c6         1 P4I       0.166800
      9 C11          6.3350    49.3860    38.5640 c6         1 P4I      -0.031200
     10 C12          7.8100    49.5400    38.2850 cc         1 P4I       0.195400
     11 C14          9.9840    48.9320    38.8070 cd         1 P4I       0.505800
     12 C17         12.5130    48.6090    36.8390 ca         1 P4I      -0.106300
     13 C18         12.4420    48.6390    35.4320 ca         1 P4I      -0.093500
     14 C19         12.9110    47.5520    34.6740 ca         1 P4I      -0.083500
     15 C20         13.4530    46.4290    35.3200 ca         1 P4I      -0.002900
     16 C22         13.5270    46.3910    36.7220 ca         1 P4I      -0.083500
     17 C23         13.0580    47.4780    37.4810 ca         1 P4I      -0.093500
     18 C24          9.7060    50.5150    37.0100 c          1 P4I       0.558200
     19 C26          8.2710    50.3630    37.2820 cd         1 P4I      -0.256400
     20 C27          7.3410    51.1940    36.4190 c6         1 P4I       0.225000
     21 C28          5.3130    50.4470    33.4690 ca         1 P4I      -0.047000
     22 N01          5.6030    48.3130    30.6720 n1         1 P4I      -0.455000
     23 N09          5.9370    50.7050    36.4950 n3         1 P4I      -0.723600
     24 N13          8.6810    48.8070    39.0610 nc         1 P4I      -0.636300
     25 N15         10.5260    49.7480    37.8360 n          1 P4I      -0.318300
     26 Br21        14.0900    44.9500    34.2900 br         1 P4I      -0.103100
     27 H1           6.1750    51.7760    30.4320 ha         1 P4I       0.126000
     28 H2           6.1890    53.8560    31.7960 ha         1 P4I       0.121000
     29 H3           5.6500    53.7690    34.2200 ha         1 P4I       0.115000
     30 H4           4.9860    52.5740    36.1480 h1         1 P4I       0.042200
     31 H5           3.9740    51.1640    35.8330 h1         1 P4I       0.042200
     32 H6           5.6460    51.4420    38.4710 h1         1 P4I       0.038700
     33 H7           4.4490    50.2430    37.9560 h1         1 P4I       0.038700
     34 H8           6.1350    49.3780    39.6430 hc         1 P4I       0.074200
     35 H9           5.9880    48.4190    38.1790 hc         1 P4I       0.074200
     36 H10         10.6880    48.3600    39.3990 h5         1 P4I       0.051800
     37 H11         12.4710    49.7780    38.6460 h1         1 P4I       0.079200
     38 H12         12.2980    50.7230    37.1770 h1         1 P4I       0.079200
     39 H13         12.0210    49.5050    34.9240 ha         1 P4I       0.123500
     40 H14         12.8530    47.5810    33.5880 ha         1 P4I       0.134000
     41 H15         13.9470    45.5200    37.2220 ha         1 P4I       0.134000
     42 H16         13.1190    47.4380    38.5660 ha         1 P4I       0.123500
     43 H17          7.6880    51.1700    35.3750 h1         1 P4I       0.056200
     44 H18          7.3960    52.2440    36.7460 h1         1 P4I       0.056200
     45 H19          5.0740    49.4960    33.9420 ha         1 P4I       0.136000
     46 O25         10.1500    51.2530    36.1390 o          1 P4I      -0.553000
     47 C16         11.9940    49.7840    37.6570 c3         1 P4I       0.133300
@<TRIPOS>BOND
     1     1     2 1   
     2     1    22 3   
     3     2     3 ar  
     4     2    21 ar  
     5     3     4 ar  
     6     3    27 1   
     7     4     5 ar  
     8     4    28 1   
     9     5     6 ar  
    10     5    29 1   
    11     6     7 1   
    12     6    21 ar  
    13     7    23 1   
    14     7    30 1   
    15     7    31 1   
    16     8     9 1   
    17     8    23 1   
    18     8    32 1   
    19     8    33 1   
    20     9    10 1   
    21     9    34 1   
    22     9    35 1   
    23    10    19 2   
    24    10    24 1   
    25    11    24 2   
    26    11    25 1   
    27    11    36 1   
    28    12    13 ar  
    29    12    17 ar  
    30    12    47 1   
    31    13    14 ar  
    32    13    39 1   
    33    14    15 ar  
    34    14    40 1   
    35    15    16 ar  
    36    15    26 1   
    37    16    17 ar  
    38    16    41 1   
    39    17    42 1   
    40    18    19 1   
    41    18    25 1   
    42    18    46 2   
    43    19    20 1   
    44    20    23 1   
    45    20    43 1   
    46    20    44 1   
    47    21    45 1   
    48    25    47 1   
    49    37    47 1   
    50    38    47 1   
@<TRIPOS>SUBSTRUCTURE
     1 P4I         1 TEMP              0 ****  ****    0 ROOT
