@<TRIPOS>MOLECULE
P4I
   47    50     1     0     0
SMALL
abcg2


@<TRIPOS>ATOM
      1 C02          5.6890    49.3050    31.3770 cg         1 P4I       0.325000
      2 C03          5.7180    50.5190    32.1280 ca         1 P4I      -0.025000
      3 C04          6.0650    51.7190    31.4950 ca         1 P4I      -0.069000
      4 C05          6.0920    52.8870    32.2390 ca         1 P4I      -0.115000
      5 C06          5.7790    52.8610    33.5960 ca         1 P4I      -0.083000
      6 C07          5.4310    51.6710    34.2320 ca         1 P4I      -0.093300
      7 C08          5.0940    51.6360    35.7020 c3         1 P4I       0.216100
      8 C10          5.5050    50.4980    37.8040 c6         1 P4I       0.166800
      9 C11          6.2850    49.3470    38.4250 c6         1 P4I      -0.031200
     10 C12          7.7610    49.4930    38.2100 cc         1 P4I       0.195400
     11 C14          9.8520    48.8120    38.7890 cd         1 P4I       0.505800
     12 C17         12.4120    48.5660    36.9090 ca         1 P4I      -0.106300
     13 C18         11.8090    48.2760    35.6840 ca         1 P4I      -0.093500
     14 C19         12.2980    47.2610    34.8720 ca         1 P4I      -0.083500
     15 C20         13.4050    46.5370    35.2930 ca         1 P4I      -0.002900
     16 C22         14.0260    46.8040    36.5040 ca         1 P4I      -0.083500
     17 C23         13.5180    47.8200    37.3080 ca         1 P4I      -0.093500
     18 C24          9.6650    50.5230    37.1100 c          1 P4I       0.558200
     19 C26          8.2460    50.3820    37.2950 cd         1 P4I      -0.256400
     20 C27          7.3490    51.2340    36.4490 c6         1 P4I       0.225000
     21 C28          5.4020    50.4950    33.4880 ca         1 P4I      -0.047000
     22 N01          5.6650    48.3250    30.7690 n1         1 P4I      -0.455000
     23 N09          5.9780    50.7400    36.4440 n3         1 P4I      -0.723600
     24 N13          8.5760    48.6920    38.9710 nc         1 P4I      -0.636300
     25 N15         10.4340    49.6710    37.9180 n          1 P4I      -0.318300
     26 BR21        14.0830    45.1330    34.1790 br         1 P4I      -0.103100
     27 H1           6.3090    51.7240    30.4410 ha         1 P4I       0.126000
     28 H2           6.3620    53.8210    31.7640 ha         1 P4I       0.121000
     29 H3           5.8110    53.7770    34.1720 ha         1 P4I       0.115000
     30 H4           5.1230    52.6600    36.1050 h1         1 P4I       0.042200
     31 H5           4.0740    51.2680    35.8290 h1         1 P4I       0.042200
     32 H6           5.6100    51.4010    38.4290 h1         1 P4I       0.038700
     33 H7           4.4440    50.2490    37.7660 h1         1 P4I       0.038700
     34 H8           6.0890    49.2810    39.4970 hc         1 P4I       0.074200
     35 H9           5.9650    48.3960    37.9860 hc         1 P4I       0.074200
     36 H10         10.5380    48.1990    39.3630 h5         1 P4I       0.051800
     37 H11         12.3240    49.5960    38.7890 h1         1 P4I       0.079200
     38 H12         12.1690    50.6500    37.3830 h1         1 P4I       0.079200
     39 H13         10.9490    48.8420    35.3520 ha         1 P4I       0.123500
     40 H14         11.8220    47.0420    33.9260 ha         1 P4I       0.134000
     41 H15         14.8830    46.2290    36.8250 ha         1 P4I       0.134000
     42 H16         13.9910    48.0250    38.2600 ha         1 P4I       0.123500
     43 H17          7.7310    51.2470    35.4270 h1         1 P4I       0.056200
     44 H18          7.3970    52.2780    36.8090 h1         1 P4I       0.056200
     45 H19          5.1440    49.5590    33.9660 ha         1 P4I       0.136000
     46 O25         10.2050    51.2990    36.3180 o          1 P4I      -0.553000
     47 C16         11.8990    49.6780    37.7910 c3         1 P4I       0.133300
@<TRIPOS>BOND
     1     1     2 1   
     2     1    22 3   
     3     2     3 ar  
     4     2    21 ar  
     5     3     4 ar  
     6     3    27 1   
     7     4     5 ar  
     8     4    28 1   
     9     5     6 ar  
    10     5    29 1   
    11     6     7 1   
    12     6    21 ar  
    13     7    23 1   
    14     7    30 1   
    15     7    31 1   
    16     8     9 1   
    17     8    23 1   
    18     8    32 1   
    19     8    33 1   
    20     9    10 1   
    21     9    34 1   
    22     9    35 1   
    23    10    19 2   
    24    10    24 1   
    25    11    24 2   
    26    11    25 1   
    27    11    36 1   
    28    12    13 ar  
    29    12    17 ar  
    30    12    47 1   
    31    13    14 ar  
    32    13    39 1   
    33    14    15 ar  
    34    14    40 1   
    35    15    16 ar  
    36    15    26 1   
    37    16    17 ar  
    38    16    41 1   
    39    17    42 1   
    40    18    19 1   
    41    18    25 1   
    42    18    46 2   
    43    19    20 1   
    44    20    23 1   
    45    20    43 1   
    46    20    44 1   
    47    21    45 1   
    48    25    47 1   
    49    37    47 1   
    50    38    47 1   
@<TRIPOS>SUBSTRUCTURE
     1 P4I         1 TEMP              0 ****  ****    0 ROOT
