@<TRIPOS>MOLECULE
P4K
  107   106     1     0     0
SMALL
abcg2


@<TRIPOS>ATOM
      1 O1          18.8560     1.6950    -1.1220 oh         1 P4K      -0.710000
      2 C1          17.7610     2.1960    -1.8560 c3         1 P4K       0.162600
      3 C2          16.8710     1.0530    -2.2710 c3         1 P4K       0.161600
      4 O2          16.2940     0.4610    -1.1350 os         1 P4K      -0.436000
      5 C3          15.5260    -0.6740    -1.4410 c3         1 P4K       0.162600
      6 C4          14.9260    -1.2400    -0.1800 c3         1 P4K       0.162600
      7 O3          13.9840    -0.3360     0.3420 os         1 P4K      -0.438000
      8 C5          13.3570    -0.8120     1.5050 c3         1 P4K       0.162600
      9 C6          12.3360     0.1900     1.9770 c3         1 P4K       0.161600
     10 O4          11.3080     0.3030     1.0270 os         1 P4K      -0.437000
     11 C7          10.3290     1.2420     1.3920 c3         1 P4K       0.162600
     12 C8           9.3080     1.3630     0.2910 c3         1 P4K       0.162600
     13 O5           8.5940     0.1610     0.1620 os         1 P4K      -0.436000
     14 C9           7.6720     0.1940    -0.8980 c3         1 P4K       0.161600
     15 C10          6.8900    -1.0920    -0.9450 c3         1 P4K       0.161600
     16 O6           6.0680    -1.1930     0.1900 os         1 P4K      -0.436000
     17 C11          5.2440    -2.3310     0.1630 c3         1 P4K       0.162600
     18 C12          4.3420    -2.3360     1.3690 c3         1 P4K       0.161600
     19 O7           3.4670    -1.2380     1.3090 os         1 P4K      -0.436000
     20 C13          2.5620    -1.2040     2.3820 c3         1 P4K       0.161600
     21 C14          1.6980     0.0260     2.2770 c3         1 P4K       0.162600
     22 O8           0.8910    -0.0580     1.1310 os         1 P4K      -0.437000
     23 C15          0.1350     1.1060     0.9110 c3         1 P4K       0.161600
     24 C16         -0.6830     0.9530    -0.3450 c3         1 P4K       0.162600
     25 C17         -2.4460    -0.2620    -1.2990 c3         1 P4K       0.162600
     26 C18         -3.5310    -1.2560    -0.9790 c3         1 P4K       0.162600
     27 C19         -5.4490    -1.5780     0.3290 c3         1 P4K       0.162600
     28 C20         -6.4170    -0.8670     1.2390 c3         1 P4K       0.161600
     29 C21         -8.0280     0.8290     1.3060 c3         1 P4K       0.162600
     30 C22         -8.8200     1.7770     0.4430 c3         1 P4K       0.161600
     31 C23        -10.4430     1.8690    -1.2390 c3         1 P4K       0.162600
     32 C24        -11.2700     1.0220    -2.1710 c3         1 P4K       0.161600
     33 C25        -13.0020    -0.5480    -2.2430 c3         1 P4K       0.162600
     34 C26        -13.8830    -1.4190    -1.3850 c3         1 P4K       0.161600
     35 C27        -15.6090    -1.3740     0.1900 c3         1 P4K       0.161600
     36 C28        -16.4470    -0.4580     1.0440 c3         1 P4K       0.162600
     37 C29        -18.1140     1.1870     0.9750 c3         1 P4K       0.161600
     38 C30        -18.9590     2.0070     0.0260 c3         1 P4K      -0.091100
     39 O10         -4.4410    -0.6870    -0.0720 os         1 P4K      -0.440000
     40 O11         -7.1300     0.0990     0.5110 os         1 P4K      -0.438000
     41 O12         -9.6370     1.0460    -0.4360 os         1 P4K      -0.436000
     42 O13        -12.1600     0.2280    -1.4290 os         1 P4K      -0.434000
     43 O14        -14.7380    -0.6170    -0.6100 os         1 P4K      -0.433000
     44 O15        -17.2820     0.3260     0.2320 os         1 P4K      -0.448000
     45 O9          -1.6690    -0.0290    -0.1520 os         1 P4K      -0.439000
     46 H1          19.4190     2.4360    -0.8830 ho         1 P4K       0.499000
     47 H2          17.1760     2.9190    -1.2730 h1         1 P4K       0.025200
     48 H3          18.0820     2.7110    -2.7700 h1         1 P4K       0.025200
     49 H4          16.0980     1.4450    -2.9470 h1         1 P4K       0.026200
     50 H5          17.4520     0.3170    -2.8460 h1         1 P4K       0.026200
     51 H6          14.7270    -0.4320    -2.1580 h1         1 P4K       0.028200
     52 H7          16.1440    -1.4540    -1.9090 h1         1 P4K       0.028200
     53 H8          14.4550    -2.2020    -0.4250 h1         1 P4K       0.029200
     54 H9          15.7200    -1.4500     0.5510 h1         1 P4K       0.029200
     55 H10         12.8740    -1.7830     1.3230 h1         1 P4K       0.028200
     56 H11         14.0840    -0.9660     2.3140 h1         1 P4K       0.028200
     57 H12         11.9470    -0.1500     2.9470 h1         1 P4K       0.027700
     58 H13         12.8180     1.1630     2.1520 h1         1 P4K       0.027700
     59 H14          9.8380     0.9570     2.3350 h1         1 P4K       0.028200
     60 H15         10.7740     2.2340     1.5540 h1         1 P4K       0.028200
     61 H16          8.6340     2.1970     0.5330 h1         1 P4K       0.028200
     62 H17          9.8110     1.6270    -0.6510 h1         1 P4K       0.028200
     63 H18          6.9830     1.0450    -0.7960 h1         1 P4K       0.028200
     64 H19          8.1860     0.3160    -1.8620 h1         1 P4K       0.028200
     65 H20          6.2900    -1.0900    -1.8660 h1         1 P4K       0.028200
     66 H21          7.5760    -1.9490    -1.0150 h1         1 P4K       0.028200
     67 H22          4.6400    -2.3560    -0.7560 h1         1 P4K       0.027700
     68 H23          5.8400    -3.2550     0.1750 h1         1 P4K       0.027700
     69 H24          3.7880    -3.2860     1.3770 h1         1 P4K       0.028200
     70 H25          4.9410    -2.3120     2.2910 h1         1 P4K       0.028200
     71 H26          1.9340    -2.1070     2.3970 h1         1 P4K       0.027700
     72 H27          3.0890    -1.1700     3.3460 h1         1 P4K       0.027700
     73 H28          1.0890     0.0980     3.1890 h1         1 P4K       0.028200
     74 H29          2.3320     0.9240     2.2470 h1         1 P4K       0.028200
     75 H30         -0.5270     1.3170     1.7640 h1         1 P4K       0.028700
     76 H31          0.7880     1.9820     0.7910 h1         1 P4K       0.028700
     77 H32         -1.1360     1.9260    -0.5810 h1         1 P4K       0.028700
     78 H33         -0.0260     0.6970    -1.1890 h1         1 P4K       0.028700
     79 H34         -1.8340    -0.6710    -2.1150 h1         1 P4K       0.028700
     80 H35         -2.8920     0.6720    -1.6710 h1         1 P4K       0.028700
     81 H36         -4.0310    -1.5360    -1.9170 h1         1 P4K       0.028700
     82 H37         -3.0870    -2.1760    -0.5700 h1         1 P4K       0.028700
     83 H38         -5.0280    -2.4340     0.8750 h1         1 P4K       0.028700
     84 H39         -5.9850    -1.9880    -0.5400 h1         1 P4K       0.028700
     85 H40         -7.0950    -1.6140     1.6750 h1         1 P4K       0.028700
     86 H41         -5.8700    -0.4090     2.0770 h1         1 P4K       0.028700
     87 H42         -7.4960     1.4190     2.0660 h1         1 P4K       0.028200
     88 H43         -8.7120     0.1590     1.8470 h1         1 P4K       0.028200
     89 H44         -9.4220     2.4160     1.1040 h1         1 P4K       0.028200
     90 H45         -8.1410     2.4410    -0.1100 h1         1 P4K       0.028200
     91 H46         -9.8320     2.5490    -1.8500 h1         1 P4K       0.027700
     92 H47        -11.1010     2.4990    -0.6230 h1         1 P4K       0.027700
     93 H48        -11.8100     1.6950    -2.8520 h1         1 P4K       0.027700
     94 H49        -10.6130     0.3990    -2.7960 h1         1 P4K       0.027700
     95 H50        -12.4200    -1.2040    -2.9060 h1         1 P4K       0.027200
     96 H51        -13.6200     0.0910    -2.8910 h1         1 P4K       0.027200
     97 H52        -14.4550    -2.0810    -2.0500 h1         1 P4K       0.027700
     98 H53        -13.2650    -2.0660    -0.7460 h1         1 P4K       0.027700
     99 H54        -15.0510    -2.0440     0.8600 h1         1 P4K       0.026200
    100 H55        -16.2590    -2.0110    -0.4270 h1         1 P4K       0.026200
    101 H56        -17.0340    -1.0810     1.7340 h1         1 P4K       0.027200
    102 H57        -15.7960     0.1740     1.6650 h1         1 P4K       0.027200
    103 H58        -17.5100     1.8500     1.6090 h1         1 P4K       0.016700
    104 H59        -18.7590     0.6080     1.6510 h1         1 P4K       0.016700
    105 H60        -18.3400     2.6230    -0.6270 hc         1 P4K       0.042367
    106 H61        -19.5900     1.3710    -0.5960 hc         1 P4K       0.042367
    107 H62        -19.6110     2.6710     0.5930 hc         1 P4K       0.042367
@<TRIPOS>BOND
     1     1     2 1   
     2     1    46 1   
     3     2     3 1   
     4     2    47 1   
     5     2    48 1   
     6     3     4 1   
     7     3    49 1   
     8     3    50 1   
     9     4     5 1   
    10     5     6 1   
    11     5    51 1   
    12     5    52 1   
    13     6     7 1   
    14     6    53 1   
    15     6    54 1   
    16     7     8 1   
    17     8     9 1   
    18     8    55 1   
    19     8    56 1   
    20     9    10 1   
    21     9    57 1   
    22     9    58 1   
    23    10    11 1   
    24    11    12 1   
    25    11    59 1   
    26    11    60 1   
    27    12    13 1   
    28    12    61 1   
    29    12    62 1   
    30    13    14 1   
    31    14    15 1   
    32    14    63 1   
    33    14    64 1   
    34    15    16 1   
    35    15    65 1   
    36    15    66 1   
    37    16    17 1   
    38    17    18 1   
    39    17    67 1   
    40    17    68 1   
    41    18    19 1   
    42    18    69 1   
    43    18    70 1   
    44    19    20 1   
    45    20    21 1   
    46    20    71 1   
    47    20    72 1   
    48    21    22 1   
    49    21    73 1   
    50    21    74 1   
    51    22    23 1   
    52    23    24 1   
    53    23    75 1   
    54    23    76 1   
    55    24    45 1   
    56    24    77 1   
    57    24    78 1   
    58    25    26 1   
    59    25    45 1   
    60    25    79 1   
    61    25    80 1   
    62    26    39 1   
    63    26    81 1   
    64    26    82 1   
    65    27    28 1   
    66    27    39 1   
    67    27    83 1   
    68    27    84 1   
    69    28    40 1   
    70    28    85 1   
    71    28    86 1   
    72    29    30 1   
    73    29    40 1   
    74    29    87 1   
    75    29    88 1   
    76    30    41 1   
    77    30    89 1   
    78    30    90 1   
    79    31    32 1   
    80    31    41 1   
    81    31    91 1   
    82    31    92 1   
    83    32    42 1   
    84    32    93 1   
    85    32    94 1   
    86    33    34 1   
    87    33    42 1   
    88    33    95 1   
    89    33    96 1   
    90    34    43 1   
    91    34    97 1   
    92    34    98 1   
    93    35    36 1   
    94    35    43 1   
    95    35    99 1   
    96    35   100 1   
    97    36    44 1   
    98    36   101 1   
    99    36   102 1   
   100    37    38 1   
   101    37    44 1   
   102    37   103 1   
   103    37   104 1   
   104    38   105 1   
   105    38   106 1   
   106    38   107 1   
@<TRIPOS>SUBSTRUCTURE
     1 P4K         1 TEMP              0 ****  ****    0 ROOT
