@<TRIPOS>MOLECULE
P4K
  107   106     1     0     0
SMALL
No Charge or Current Charge


@<TRIPOS>ATOM
      1 O1          20.3320     0.5550     0.5200 oh         1 P4K      -0.710000
      2 C1          19.4340     1.5900     0.0730 c3         1 P4K       0.162600
      3 C2          18.4960     1.0870    -1.0580 c3         1 P4K       0.161600
      4 O2          17.5770     0.1150    -0.5180 os         1 P4K      -0.436000
      5 C3          16.6550    -0.4340    -1.4810 c3         1 P4K       0.162600
      6 C4          15.7230    -1.4450    -0.7710 c3         1 P4K       0.162600
      7 O3          14.7960    -0.7240     0.0660 os         1 P4K      -0.438000
      8 C5          13.8740    -1.5610     0.7920 c3         1 P4K       0.162600
      9 C6          12.9340    -0.6650     1.6340 c3         1 P4K       0.161600
     10 O4          12.0130     0.0110     0.7540 os         1 P4K      -0.437000
     11 C7          11.0860     0.8890     1.4220 c3         1 P4K       0.162600
     12 C8          10.1550     1.5360     0.3680 c3         1 P4K       0.162600
     13 O5           9.2370     0.5400    -0.1250 os         1 P4K      -0.436000
     14 C9           8.3190     1.0180    -1.1280 c3         1 P4K       0.161600
     15 C10          7.3900    -0.1420    -1.5570 c3         1 P4K       0.161600
     16 O6           6.4620    -0.4220    -0.4900 os         1 P4K      -0.436000
     17 C11          5.5430    -1.4980    -0.7660 c3         1 P4K       0.162600
     18 C12          4.6020    -1.6820     0.4490 c3         1 P4K       0.161600
     19 O7           3.6780    -0.5760     0.5010 os         1 P4K      -0.436000
     20 C13          2.7490    -0.6260     1.6020 c3         1 P4K       0.161600
     21 C14          1.8150     0.6050     1.5310 c3         1 P4K       0.162600
     22 O8           0.9000     0.4400     0.4290 os         1 P4K      -0.437000
     23 C15         -0.0220     1.5340     0.2500 c3         1 P4K       0.161600
     24 C16         -0.9470     1.2240    -0.9510 c3         1 P4K       0.162600
     25 C17         -2.7880    -0.2060    -1.6200 c3         1 P4K       0.162600
     26 C18         -3.7270    -1.3120    -1.0830 c3         1 P4K       0.162600
     27 C19         -5.5850    -1.6650     0.4340 c3         1 P4K       0.162600
     28 C20         -6.5280    -0.9090     1.4000 c3         1 P4K       0.161600
     29 C21         -8.3730     0.6640     1.4220 c3         1 P4K       0.162600
     30 C22         -9.2980     1.4670     0.4770 c3         1 P4K       0.161600
     31 C23        -11.1290     1.1900    -1.0880 c3         1 P4K       0.162600
     32 C24        -12.0580     0.1120    -1.6950 c3         1 P4K       0.161600
     33 C25        -13.9080    -1.3490    -1.1290 c3         1 P4K       0.162600
     34 C26        -14.8510    -1.7200     0.0400 c3         1 P4K       0.161600
     35 C27        -16.7030    -0.8560     1.3420 c3         1 P4K       0.161600
     36 C28        -17.6350     0.3740     1.4670 c3         1 P4K       0.162600
     37 C29        -19.4640     1.4950     0.3510 c3         1 P4K       0.161600
     38 C30        -20.3560     1.3610    -0.8940 c3         1 P4K      -0.091100
     39 O10         -4.6570    -0.7280    -0.1490 os         1 P4K      -0.440000
     40 O11         -7.4440    -0.1030     0.6310 os         1 P4K      -0.438000
     41 O12        -10.2150     0.5610    -0.1680 os         1 P4K      -0.436000
     42 O13        -12.9880    -0.3300    -0.6870 os         1 P4K      -0.434000
     43 O14        -15.7720    -0.6350     0.2640 os         1 P4K      -0.433000
     44 O15        -18.5490     0.3900     0.3520 os         1 P4K      -0.448000
     45 O9          -1.8730     0.1840    -0.5760 os         1 P4K      -0.439000
     46 H1          20.8470     0.9300     1.2730 ho         1 P4K       0.499000
     47 H2          18.8210     1.9560     0.9080 h1         1 P4K       0.025200
     48 H3          20.0090     2.4440    -0.3100 h1         1 P4K       0.025200
     49 H4          17.9440     1.9440    -1.4680 h1         1 P4K       0.026200
     50 H5          19.0970     0.6520    -1.8670 h1         1 P4K       0.026200
     51 H6          16.0520     0.3570    -1.9460 h1         1 P4K       0.028200
     52 H7          17.2040    -0.9560    -2.2760 h1         1 P4K       0.028200
     53 H8          15.1790    -2.0180    -1.5330 h1         1 P4K       0.029200
     54 H9          16.3250    -2.1480    -0.1800 h1         1 P4K       0.029200
     55 H10         13.2760    -2.1770     0.1070 h1         1 P4K       0.028200
     56 H11         14.4210    -2.2320     1.4670 h1         1 P4K       0.028200
     57 H12         12.3850    -1.2970     2.3450 h1         1 P4K       0.027700
     58 H13         13.5310     0.0550     2.2090 h1         1 P4K       0.027700
     59 H14         10.4820     0.3420     2.1580 h1         1 P4K       0.028200
     60 H15         11.6290     1.6840     1.9490 h1         1 P4K       0.028200
     61 H16          9.6030     2.3590     0.8410 h1         1 P4K       0.028200
     62 H17         10.7590     1.9550    -0.4480 h1         1 P4K       0.028200
     63 H18          7.7140     1.8500    -0.7450 h1         1 P4K       0.028200
     64 H19          8.8710     1.3740    -2.0080 h1         1 P4K       0.028200
     65 H20          6.8470     0.1560    -2.4640 h1         1 P4K       0.028200
     66 H21          7.9940    -1.0270    -1.7980 h1         1 P4K       0.028200
     67 H22          4.9470    -1.2880    -1.6630 h1         1 P4K       0.027700
     68 H23          6.0930    -2.4330    -0.9320 h1         1 P4K       0.027700
     69 H24          4.0560    -2.6270     0.3330 h1         1 P4K       0.028200
     70 H25          5.1980    -1.7420     1.3690 h1         1 P4K       0.028200
     71 H26          2.1480    -1.5450     1.5700 h1         1 P4K       0.027700
     72 H27          3.2900    -0.6050     2.5560 h1         1 P4K       0.027700
     73 H28          1.2600     0.6840     2.4760 h1         1 P4K       0.028200
     74 H29          2.4160     1.5160     1.4110 h1         1 P4K       0.028200
     75 H30         -0.6290     1.6910     1.1510 h1         1 P4K       0.028700
     76 H31          0.5270     2.4620     0.0420 h1         1 P4K       0.028700
     77 H32         -1.4930     2.1370    -1.2230 h1         1 P4K       0.028700
     78 H33         -0.3400     0.9190    -1.8140 h1         1 P4K       0.028700
     79 H34         -2.2340    -0.6000    -2.4820 h1         1 P4K       0.028700
     80 H35         -3.3860     0.6500    -1.9610 h1         1 P4K       0.028700
     81 H36         -4.2670    -1.7590    -1.9280 h1         1 P4K       0.028700
     82 H37         -3.1300    -2.1000    -0.6050 h1         1 P4K       0.028700
     83 H38         -5.0430    -2.4350     0.9980 h1         1 P4K       0.028700
     84 H39         -6.1800    -2.1660    -0.3420 h1         1 P4K       0.028700
     85 H40         -7.0810    -1.6420     2.0010 h1         1 P4K       0.028700
     86 H41         -5.9330    -0.2870     2.0820 h1         1 P4K       0.028700
     87 H42         -7.8310     1.3660     2.0680 h1         1 P4K       0.028200
     88 H43         -8.9800     0.0100     2.0620 h1         1 P4K       0.028200
     89 H44         -9.8510     2.2080     1.0690 h1         1 P4K       0.028200
     90 H45         -8.6900     2.0060    -0.2620 h1         1 P4K       0.028200
     91 H46        -10.5740     1.6780    -1.9000 h1         1 P4K       0.027700
     92 H47        -11.7350     1.9540    -0.5820 h1         1 P4K       0.027700
     93 H48        -12.5980     0.5490    -2.5450 h1         1 P4K       0.027700
     94 H49        -11.4530    -0.7250    -2.0690 h1         1 P4K       0.027700
     95 H50        -13.3580    -2.2470    -1.4400 h1         1 P4K       0.027200
     96 H51        -14.5020    -1.0000    -1.9840 h1         1 P4K       0.027200
     97 H52        -15.3980    -2.6340    -0.2240 h1         1 P4K       0.027700
     98 H53        -14.2560    -1.9260     0.9400 h1         1 P4K       0.027700
     99 H54        -16.1630    -0.9880     2.2890 h1         1 P4K       0.026200
    100 H55        -17.3060    -1.7570     1.1650 h1         1 P4K       0.026200
    101 H56        -18.1900     0.3020     2.4120 h1         1 P4K       0.027200
    102 H57        -17.0300     1.2900     1.4960 h1         1 P4K       0.027200
    103 H58        -18.9220     2.4500     0.3120 h1         1 P4K       0.016700
    104 H59        -20.0900     1.4840     1.2530 h1         1 P4K       0.016700
    105 H60        -19.7500     1.3840    -1.8070 hc         1 P4K       0.042367
    106 H61        -20.9170     0.4200    -0.8680 hc         1 P4K       0.042367
    107 H62        -21.0740     2.1890    -0.9360 hc         1 P4K       0.042367
@<TRIPOS>BOND
     1     1     2 1   
     2     1    46 1   
     3     2     3 1   
     4     2    47 1   
     5     2    48 1   
     6     3     4 1   
     7     3    49 1   
     8     3    50 1   
     9     4     5 1   
    10     5     6 1   
    11     5    51 1   
    12     5    52 1   
    13     6     7 1   
    14     6    53 1   
    15     6    54 1   
    16     7     8 1   
    17     8     9 1   
    18     8    55 1   
    19     8    56 1   
    20     9    10 1   
    21     9    57 1   
    22     9    58 1   
    23    10    11 1   
    24    11    12 1   
    25    11    59 1   
    26    11    60 1   
    27    12    13 1   
    28    12    61 1   
    29    12    62 1   
    30    13    14 1   
    31    14    15 1   
    32    14    63 1   
    33    14    64 1   
    34    15    16 1   
    35    15    65 1   
    36    15    66 1   
    37    16    17 1   
    38    17    18 1   
    39    17    67 1   
    40    17    68 1   
    41    18    19 1   
    42    18    69 1   
    43    18    70 1   
    44    19    20 1   
    45    20    21 1   
    46    20    71 1   
    47    20    72 1   
    48    21    22 1   
    49    21    73 1   
    50    21    74 1   
    51    22    23 1   
    52    23    24 1   
    53    23    75 1   
    54    23    76 1   
    55    24    45 1   
    56    24    77 1   
    57    24    78 1   
    58    25    26 1   
    59    25    45 1   
    60    25    79 1   
    61    25    80 1   
    62    26    39 1   
    63    26    81 1   
    64    26    82 1   
    65    27    28 1   
    66    27    39 1   
    67    27    83 1   
    68    27    84 1   
    69    28    40 1   
    70    28    85 1   
    71    28    86 1   
    72    29    30 1   
    73    29    40 1   
    74    29    87 1   
    75    29    88 1   
    76    30    41 1   
    77    30    89 1   
    78    30    90 1   
    79    31    32 1   
    80    31    41 1   
    81    31    91 1   
    82    31    92 1   
    83    32    42 1   
    84    32    93 1   
    85    32    94 1   
    86    33    34 1   
    87    33    42 1   
    88    33    95 1   
    89    33    96 1   
    90    34    43 1   
    91    34    97 1   
    92    34    98 1   
    93    35    36 1   
    94    35    43 1   
    95    35    99 1   
    96    35   100 1   
    97    36    44 1   
    98    36   101 1   
    99    36   102 1   
   100    37    38 1   
   101    37    44 1   
   102    37   103 1   
   103    37   104 1   
   104    38   105 1   
   105    38   106 1   
   106    38   107 1   
@<TRIPOS>SUBSTRUCTURE
     1 P4K         1 TEMP              0 ****  ****    0 ROOT
