@<TRIPOS>MOLECULE
P4L
   28    30     1     0     0
SMALL
No Charge or Current Charge


@<TRIPOS>ATOM
      1 N1          -0.5100     1.4500     0.0310 nb         1 P4L      -0.286000
      2 C2          -0.9670     0.1780     0.0190 cp         1 P4L       0.130000
      3 N3          -0.1640    -0.9110    -0.0110 nb         1 P4L      -0.165000
      4 C4           1.1720    -0.7280    -0.0300 ca         1 P4L       0.152300
      5 C5           1.7320     0.5730    -0.0080 ca         1 P4L      -0.200300
      6 C6           0.8170     1.6420     0.0170 ca         1 P4L       0.358300
      7 O6           1.2400     2.9320     0.0180 oh         1 P4L      -0.639300
      8 CAB         -5.2100    -0.5240     0.0760 ca         1 P4L      -0.149000
      9 CAC         -4.7700     0.8080     0.0910 ca         1 P4L      -0.088000
     10 CAD         -4.2580    -1.5550     0.0430 ca         1 P4L       0.329900
     11 CAE         -3.3860     1.0490     0.0730 ca         1 P4L      -0.117000
     12 CAF          3.4490    -1.8570    -0.4890 c6         1 P4L       0.056600
     13 CAG          1.9860    -2.0280    -0.0510 c6         1 P4L      -0.133700
     14 CAH          3.2420     0.8550    -0.0430 c6         1 P4L       0.124900
     15 NAI         -2.9260    -1.3210     0.0250 nb         1 P4L      -0.625000
     16 SAL          4.2760    -0.5660     0.5200 ss         1 P4L      -0.418000
     17 CAN         -2.4690    -0.0390     0.0400 cp         1 P4L       0.287000
     18 HO6          0.4300     3.4860     0.0330 ho         1 P4L       0.491000
     19 HAC         -5.4810     1.6320     0.1170 ha         1 P4L       0.121000
     20 HAD         -4.5700    -2.5990     0.0300 h4         1 P4L       0.023100
     21 HAE         -3.0260     2.0740     0.0850 ha         1 P4L       0.141000
     22 HAF          3.9960    -2.8030    -0.3710 h1         1 P4L       0.074700
     23 HAFA         3.4990    -1.5590    -1.5470 h1         1 P4L       0.074700
     24 HAG          1.9660    -2.4680     0.9550 hc         1 P4L       0.081700
     25 HAGA         1.5020    -2.7610    -0.7120 hc         1 P4L       0.081700
     26 HAH          3.5390     1.1100    -1.0700 h1         1 P4L       0.084200
     27 HAHA         3.4830     1.7160     0.5970 h1         1 P4L       0.084200
     28 HAB         -6.2700    -0.7610     0.0890 ha         1 P4L       0.125000
@<TRIPOS>BOND
     1     1     2 ar  
     2     1     6 ar  
     3     2     3 ar  
     4     2    17 1   
     5     3     4 ar  
     6     4     5 ar  
     7     4    13 1   
     8     5     6 ar  
     9     5    14 1   
    10     6     7 1   
    11     7    18 1   
    12     8     9 ar  
    13     8    10 ar  
    14     8    28 1   
    15     9    11 ar  
    16     9    19 1   
    17    10    15 ar  
    18    10    20 1   
    19    11    17 ar  
    20    11    21 1   
    21    12    13 1   
    22    12    16 1   
    23    12    22 1   
    24    12    23 1   
    25    13    24 1   
    26    13    25 1   
    27    14    16 1   
    28    14    26 1   
    29    14    27 1   
    30    15    17 ar  
@<TRIPOS>SUBSTRUCTURE
     1 P4L         1 TEMP              0 ****  ****    0 ROOT
