@<TRIPOS>MOLECULE
P4L
   28    30     1     0     0
SMALL
abcg2


@<TRIPOS>ATOM
      1 N1          -0.5410     1.4040     0.0150 nb         1 P4L      -0.286000
      2 C2          -0.9700     0.1450     0.0070 cp         1 P4L       0.130000
      3 N3          -0.1950    -0.9160    -0.0320 nb         1 P4L      -0.165000
      4 C4           1.1300    -0.7270    -0.0490 ca         1 P4L       0.152300
      5 C5           1.6900     0.5410    -0.0120 ca         1 P4L      -0.200300
      6 C6           0.7600     1.5930    -0.0020 ca         1 P4L       0.358300
      7 O6           1.2190     2.8360    -0.0090 oh         1 P4L      -0.639300
      8 CAB         -5.1270    -0.5110     0.1000 ca         1 P4L      -0.149000
      9 CAC         -4.6730     0.7970     0.0770 ca         1 P4L      -0.088000
     10 CAD         -4.1830    -1.5300     0.0910 ca         1 P4L       0.329900
     11 CAE         -3.3070     1.0320     0.0460 ca         1 P4L      -0.117000
     12 CAF          3.3970    -1.8050    -0.4790 c6         1 P4L       0.056600
     13 CAG          1.9420    -1.9900    -0.0970 c6         1 P4L      -0.133700
     14 CAH          3.1610     0.8410    -0.0140 c6         1 P4L       0.124900
     15 NAI         -2.8770    -1.3150     0.0600 nb         1 P4L      -0.625000
     16 SAL          4.1750    -0.5420     0.5550 ss         1 P4L      -0.418000
     17 CAN         -2.4420    -0.0580     0.0390 cp         1 P4L       0.287000
     18 HO6          0.4740     3.4530     0.0170 ho         1 P4L       0.491000
     19 HAC         -5.3700     1.6250     0.0830 ha         1 P4L       0.121000
     20 HAD         -4.5000    -2.5660     0.1090 h4         1 P4L       0.023100
     21 HAE         -2.9180     2.0400     0.0270 ha         1 P4L       0.141000
     22 HAF          3.9500    -2.7320    -0.3300 h1         1 P4L       0.074700
     23 HAFA         3.5030    -1.5230    -1.5290 h1         1 P4L       0.074700
     24 HAG          1.8790    -2.4690     0.8840 hc         1 P4L       0.081700
     25 HAGA         1.4580    -2.6720    -0.8000 hc         1 P4L       0.081700
     26 HAH          3.4860     1.1430    -1.0130 h1         1 P4L       0.084200
     27 HAHA         3.3830     1.6730     0.6560 h1         1 P4L       0.084200
     28 HAB         -6.1830    -0.7420     0.1250 ha         1 P4L       0.125000
@<TRIPOS>BOND
     1     1     2 ar  
     2     1     6 ar  
     3     2     3 ar  
     4     2    17 1   
     5     3     4 ar  
     6     4     5 ar  
     7     4    13 1   
     8     5     6 ar  
     9     5    14 1   
    10     6     7 1   
    11     7    18 1   
    12     8     9 ar  
    13     8    10 ar  
    14     8    28 1   
    15     9    11 ar  
    16     9    19 1   
    17    10    15 ar  
    18    10    20 1   
    19    11    17 ar  
    20    11    21 1   
    21    12    13 1   
    22    12    16 1   
    23    12    22 1   
    24    12    23 1   
    25    13    24 1   
    26    13    25 1   
    27    14    16 1   
    28    14    26 1   
    29    14    27 1   
    30    15    17 ar  
@<TRIPOS>SUBSTRUCTURE
     1 P4L         1 TEMP              0 ****  ****    0 ROOT
