@<TRIPOS>MOLECULE
P4M
   32    33     1     0     0
SMALL
No Charge or Current Charge


@<TRIPOS>ATOM
      1 C10         42.7190    16.4830     6.4100 c3         1 P4M      -0.100100
      2 C13         41.6440    15.4110     6.2310 c          1 P4M       0.564000
      3 C20         39.9010    17.1780     6.1580 c2         1 P4M      -0.058400
      4 C22         40.3510    18.0670     7.0780 ce         1 P4M      -0.216200
      5 C24         41.4250    17.8500     8.0910 ca         1 P4M      -0.035800
      6 C01         45.6130    16.5760    10.8080 c3         1 P4M       0.144900
      7 C06         43.4460    17.5010    10.0420 ca         1 P4M       0.116100
      8 C07         43.5770    16.9140     8.7630 ca         1 P4M      -0.155000
      9 C09         42.5740    17.0920     7.7920 ca         1 P4M      -0.074300
     10 O14         41.9220    14.2230     6.3500 o          1 P4M      -0.549000
     11 N15         40.3170    15.8340     5.9700 n          1 P4M      -0.332000
     12 C16         39.3200    14.7990     5.6160 c3         1 P4M       0.089300
     13 C25         41.2980    18.4470     9.3580 ca         1 P4M      -0.161000
     14 C27         42.2990    18.2750    10.3400 ca         1 P4M       0.116100
     15 O28         42.1940    18.8460    11.5990 os         1 P4M      -0.327100
     16 C29         41.0650    19.6470    11.9920 c3         1 P4M       0.145900
     17 H1          43.7120    16.0400     6.2690 hc         1 P4M       0.075700
     18 H2          42.5590    17.2820     5.6790 hc         1 P4M       0.075700
     19 H3          39.0810    17.4540     5.4920 h4         1 P4M       0.185000
     20 H4          39.8780    19.0490     7.1320 ha         1 P4M       0.185000
     21 H5          46.2350    16.5850    11.7120 h1         1 P4M       0.043033
     22 H6          45.3690    15.5320    10.5740 h1         1 P4M       0.043033
     23 H7          46.2050    16.9940     9.9840 h1         1 P4M       0.043033
     24 H8          44.4510    16.3220     8.5080 ha         1 P4M       0.124000
     25 H9          38.3560    15.2630     5.3740 h1         1 P4M       0.047700
     26 H10         39.6680    14.2300     4.7450 h1         1 P4M       0.047700
     27 H11         39.1800    14.1150     6.4630 h1         1 P4M       0.047700
     28 H12         40.4090    19.0360     9.5640 ha         1 P4M       0.119000
     29 H13         41.1890    19.9960    13.0250 h1         1 P4M       0.041367
     30 H14         40.9680    20.5290    11.3460 h1         1 P4M       0.041367
     31 H15         40.1360    19.0660    11.9390 h1         1 P4M       0.041367
     32 O05         44.4150    17.3450    11.0200 os         1 P4M      -0.328100
@<TRIPOS>BOND
     1     1     2 1   
     2     1     9 1   
     3     1    17 1   
     4     1    18 1   
     5     2    10 2   
     6     2    11 1   
     7     3     4 2   
     8     3    11 1   
     9     3    19 1   
    10     4     5 1   
    11     4    20 1   
    12     5     9 ar  
    13     5    13 ar  
    14     6    21 1   
    15     6    22 1   
    16     6    23 1   
    17     6    32 1   
    18     7     8 ar  
    19     7    14 ar  
    20     7    32 1   
    21     8     9 ar  
    22     8    24 1   
    23    11    12 1   
    24    12    25 1   
    25    12    26 1   
    26    12    27 1   
    27    13    14 ar  
    28    13    28 1   
    29    14    15 1   
    30    15    16 1   
    31    16    29 1   
    32    16    30 1   
    33    16    31 1   
@<TRIPOS>SUBSTRUCTURE
     1 P4M         1 TEMP              0 ****  ****    0 ROOT
