@<TRIPOS>MOLECULE
P4M
   32    33     1     0     0
SMALL
abcg2


@<TRIPOS>ATOM
      1 C10         42.6900    16.5160     6.4440 c3         1 P4M      -0.100100
      2 C13         41.6770    15.4240     6.1780 c          1 P4M       0.564000
      3 C20         39.8900    17.1150     6.2600 c2         1 P4M      -0.058400
      4 C22         40.3100    18.0010     7.1800 ce         1 P4M      -0.216200
      5 C24         41.3980    17.8420     8.1310 ca         1 P4M      -0.035800
      6 C01         45.5030    16.5760    10.7750 c3         1 P4M       0.144900
      7 C06         43.4180    17.4830    10.0480 ca         1 P4M       0.116100
      8 C07         43.5220    16.8980     8.7950 ca         1 P4M      -0.155000
      9 C09         42.5290    17.0830     7.8280 ca         1 P4M      -0.074300
     10 O14         41.9950    14.2390     6.0920 o          1 P4M      -0.549000
     11 N15         40.3800    15.8260     6.0100 n          1 P4M      -0.332000
     12 C16         39.4080    14.8150     5.5870 c3         1 P4M       0.089300
     13 C25         41.3090    18.4620     9.3920 ca         1 P4M      -0.161000
     14 C27         42.2930    18.2900    10.3470 ca         1 P4M       0.116100
     15 O28         42.2740    18.8460    11.5880 os         1 P4M      -0.327100
     16 C29         41.1650    19.6740    11.9290 c3         1 P4M       0.145900
     17 H1          43.6770    16.0790     6.3160 hc         1 P4M       0.075700
     18 H2          42.5550    17.3090     5.7020 hc         1 P4M       0.075700
     19 H3          39.0220    17.3570     5.6600 h4         1 P4M       0.185000
     20 H4          39.7260    18.9110     7.2520 ha         1 P4M       0.185000
     21 H5          46.0950    16.6110    11.6860 h1         1 P4M       0.043033
     22 H6          45.2330    15.5410    10.5510 h1         1 P4M       0.043033
     23 H7          46.0790    16.9910     9.9450 h1         1 P4M       0.043033
     24 H8          44.3920    16.3100     8.5430 ha         1 P4M       0.124000
     25 H9          38.5360    15.3200     5.1800 h1         1 P4M       0.047700
     26 H10         39.8490    14.1740     4.8280 h1         1 P4M       0.047700
     27 H11         39.0980    14.1990     6.4330 h1         1 P4M       0.047700
     28 H12         40.4400    19.0650     9.6110 ha         1 P4M       0.119000
     29 H13         41.3460    20.0100    12.9460 h1         1 P4M       0.041367
     30 H14         41.0990    20.5370    11.2610 h1         1 P4M       0.041367
     31 H15         40.2280    19.1130    11.8890 h1         1 P4M       0.041367
     32 O05         44.3410    17.3630    11.0360 os         1 P4M      -0.328100
@<TRIPOS>BOND
     1     1     2 1   
     2     1     9 1   
     3     1    17 1   
     4     1    18 1   
     5     2    10 2   
     6     2    11 1   
     7     3     4 2   
     8     3    11 1   
     9     3    19 1   
    10     4     5 1   
    11     4    20 1   
    12     5     9 ar  
    13     5    13 ar  
    14     6    21 1   
    15     6    22 1   
    16     6    23 1   
    17     6    32 1   
    18     7     8 ar  
    19     7    14 ar  
    20     7    32 1   
    21     8     9 ar  
    22     8    24 1   
    23    11    12 1   
    24    12    25 1   
    25    12    26 1   
    26    12    27 1   
    27    13    14 ar  
    28    13    28 1   
    29    14    15 1   
    30    15    16 1   
    31    16    29 1   
    32    16    30 1   
    33    16    31 1   
@<TRIPOS>SUBSTRUCTURE
     1 P4M         1 TEMP              0 ****  ****    0 ROOT
