@<TRIPOS>MOLECULE
P4N
   54    57     1     0     0
SMALL
No Charge or Current Charge


@<TRIPOS>ATOM
      1 C1         -17.3210    -1.2950    17.1220 ca         1 P4N      -0.126000
      2 C2         -15.9490    -1.0690    16.9230 ca         1 P4N      -0.016000
      3 C3         -15.0110    -2.0310    17.3480 ca         1 P4N      -0.258500
      4 C10        -12.9540    -2.5220    15.4890 c3         1 P4N      -0.335100
      5 C13        -16.0130    -4.6640    21.0500 ca         1 P4N       0.471900
      6 C15        -16.2080    -2.9380    22.5230 ca         1 P4N       0.441900
      7 N23        -16.7910    -1.7380    22.8990 nu         1 P4N      -0.922900
      8 C24        -17.6020    -0.7990    22.2490 ca         1 P4N       0.276000
      9 C27        -17.5560    -0.6040    20.8520 ca         1 P4N      -0.076000
     10 C30        -20.2630     1.8010    23.2550 c6         1 P4N      -0.023100
     11 C31        -20.6030     3.1620    22.5920 c6         1 P4N      -0.161400
     12 C32        -20.8240     3.0690    21.0740 c          1 P4N       0.571000
     13 C4         -15.4560    -3.2180    17.9680 ca         1 P4N      -0.013000
     14 C5         -16.8340    -3.4410    18.1820 ca         1 P4N      -0.122300
     15 C6         -17.7610    -2.4710    17.7510 ca         1 P4N      -0.053000
     16 S7         -13.2470    -1.7580    17.0830 sy         1 P4N       1.053500
     17 O8         -13.0080    -0.3190    16.9080 o          1 P4N      -0.518000
     18 O9         -12.4900    -2.5410    18.0670 o          1 P4N      -0.518000
     19 N12        -16.4110    -5.2530    19.8610 nu         1 P4N      -0.923100
     20 N14        -16.5970    -3.5030    21.3750 nb         1 P4N      -0.322000
     21 N16        -15.3090    -3.4200    23.3900 nb         1 P4N      -0.274000
     22 C17        -14.7260    -4.5850    23.0600 ca         1 P4N       0.229900
     23 C18        -15.0470    -5.2650    21.8700 ca         1 P4N      -0.442300
     24 F20        -15.2540    -7.5910    21.3960 f          1 P4N      -0.117000
     25 F21        -13.6960    -6.4970    20.3430 f          1 P4N      -0.117000
     26 F22        -13.4610    -6.9710    22.4450 f          1 P4N      -0.117000
     27 C25        -18.4650    -0.0010    23.0230 ca         1 P4N      -0.113000
     28 C26        -18.3760     0.3610    20.2390 ca         1 P4N      -0.146000
     29 C28        -19.2380     1.1450    21.0210 ca         1 P4N      -0.026000
     30 C29        -19.2860     0.9690    22.4160 ca         1 P4N      -0.103300
     31 N33        -20.0650     2.1180    20.4230 ns         1 P4N      -0.150000
     32 O34        -21.6350     3.7760    20.4880 o          1 P4N      -0.540000
     33 H1         -18.0450    -0.5550    16.7890 ha         1 P4N       0.122000
     34 H2         -15.6240    -0.1510    16.4350 ha         1 P4N       0.140000
     35 H3         -11.8940    -2.4030    15.2420 h1         1 P4N       0.102367
     36 H4         -13.2180    -3.5820    15.5650 h1         1 P4N       0.102367
     37 H5         -13.5840    -2.0190    14.7480 h1         1 P4N       0.102367
     38 H6         -18.3200    -4.5190    19.3180 h1         1 P4N       0.070200
     39 H7         -17.5150    -5.4710    18.0670 h1         1 P4N       0.070200
     40 H8         -16.6310    -1.5340    23.8850 hn         1 P4N       0.515000
     41 H9         -16.8730    -1.1830    20.2400 ha         1 P4N       0.141000
     42 H10        -21.1880     1.2240    23.3910 hc         1 P4N       0.060200
     43 H11        -19.8570     1.9710    24.2620 hc         1 P4N       0.060200
     44 H12        -19.7050     3.7820    22.7110 hc         1 P4N       0.077200
     45 H13        -21.4360     3.6900    23.0740 hc         1 P4N       0.077200
     46 H14        -14.7320    -3.9670    18.2850 ha         1 P4N       0.137000
     47 H15        -18.8270    -2.6300    17.9010 ha         1 P4N       0.116000
     48 H16        -15.9890    -6.1570    19.6660 hn         1 P4N       0.509000
     49 H17        -13.9910    -4.9670    23.7670 h4         1 P4N       0.038100
     50 H18        -18.5080    -0.1430    24.0990 ha         1 P4N       0.118000
     51 H19        -18.3310     0.5050    19.1630 ha         1 P4N       0.115000
     52 H20        -20.1640     2.0710    19.4170 hn         1 P4N       0.157000
     53 C11        -17.3450    -4.7190    18.8500 c3         1 P4N       0.277100
     54 C19        -14.3630    -6.5820    21.5160 c3         1 P4N       0.380300
@<TRIPOS>BOND
     1     1     2 ar  
     2     1    15 ar  
     3     1    33 1   
     4     2     3 ar  
     5     2    34 1   
     6     3    13 ar  
     7     3    16 1   
     8     4    16 1   
     9     4    35 1   
    10     4    36 1   
    11     4    37 1   
    12     5    19 1   
    13     5    20 ar  
    14     5    23 ar  
    15     6     7 1   
    16     6    20 ar  
    17     6    21 ar  
    18     7     8 1   
    19     7    40 1   
    20     8     9 ar  
    21     8    27 ar  
    22     9    28 ar  
    23     9    41 1   
    24    10    11 1   
    25    10    30 1   
    26    10    42 1   
    27    10    43 1   
    28    11    12 1   
    29    11    44 1   
    30    11    45 1   
    31    12    31 1   
    32    12    32 2   
    33    13    14 ar  
    34    13    46 1   
    35    14    15 ar  
    36    14    53 1   
    37    15    47 1   
    38    16    17 2   
    39    16    18 2   
    40    19    48 1   
    41    19    53 1   
    42    21    22 ar  
    43    22    23 ar  
    44    22    49 1   
    45    23    54 1   
    46    24    54 1   
    47    25    54 1   
    48    26    54 1   
    49    27    30 ar  
    50    27    50 1   
    51    28    29 ar  
    52    28    51 1   
    53    29    30 ar  
    54    29    31 1   
    55    31    52 1   
    56    38    53 1   
    57    39    53 1   
@<TRIPOS>SUBSTRUCTURE
     1 P4N         1 TEMP              0 ****  ****    0 ROOT
