@<TRIPOS>MOLECULE
P4N
   54    57     1     0     0
SMALL
abcg2


@<TRIPOS>ATOM
      1 C1         -16.0850    -0.7950    16.9050 ca         1 P4N      -0.126000
      2 C2         -14.7870    -1.1610    16.5850 ca         1 P4N      -0.016000
      3 C3         -14.3200    -2.3920    17.0250 ca         1 P4N      -0.258500
      4 C10        -12.9010    -3.7870    15.0650 c3         1 P4N      -0.335100
      5 C13        -16.1130    -4.1560    20.9650 ca         1 P4N       0.471900
      6 C15        -16.1080    -2.4560    22.4820 ca         1 P4N       0.441900
      7 N23        -16.5840    -1.2550    22.8970 nu         1 P4N      -0.922900
      8 C24        -17.6420    -0.5160    22.3470 ca         1 P4N       0.276000
      9 C27        -17.7900    -0.3140    20.9780 ca         1 P4N      -0.076000
     10 C30        -20.6770     1.4010    23.6430 c6         1 P4N      -0.023100
     11 C31        -21.2140     2.7020    23.0590 c6         1 P4N      -0.161400
     12 C32        -21.6410     2.5550    21.6190 c          1 P4N       0.571000
     13 C4         -15.1130    -3.2470    17.7760 ca         1 P4N      -0.013000
     14 C5         -16.4150    -2.8780    18.0910 ca         1 P4N      -0.122300
     15 C6         -16.8900    -1.6490    17.6460 ca         1 P4N      -0.053000
     16 S7         -12.6710    -2.9010    16.5910 sy         1 P4N       1.053500
     17 O8         -11.8790    -1.7050    16.3180 o          1 P4N      -0.518000
     18 O9         -12.1940    -3.8480    17.5960 o          1 P4N      -0.518000
     19 N12        -16.6080    -4.6370    19.8110 nu         1 P4N      -0.923100
     20 N14        -16.5290    -2.9490    21.3290 nb         1 P4N      -0.322000
     21 N16        -15.2390    -3.0390    23.3180 nb         1 P4N      -0.274000
     22 C17        -14.8030    -4.2270    22.9410 ca         1 P4N       0.229900
     23 C18        -15.1970    -4.8700    21.7810 ca         1 P4N      -0.442300
     24 F20        -15.6020    -7.1340    21.2760 f          1 P4N      -0.117000
     25 F21        -14.0110    -6.1640    20.2150 f          1 P4N      -0.117000
     26 F22        -13.7670    -6.6560    22.2960 f          1 P4N      -0.117000
     27 C25        -18.5630     0.0680    23.2170 ca         1 P4N      -0.113000
     28 C26        -18.8570     0.4260    20.4960 ca         1 P4N      -0.146000
     29 C28        -19.7820     0.9850    21.3690 ca         1 P4N      -0.026000
     30 C29        -19.6300     0.8130    22.7450 ca         1 P4N      -0.103300
     31 N33        -20.8770     1.7040    20.8840 ns         1 P4N      -0.150000
     32 O34        -22.5710     3.1660    21.1250 o          1 P4N      -0.540000
     33 H1         -16.4690     0.1620    16.5810 ha         1 P4N       0.122000
     34 H2         -14.1580    -0.4950    16.0100 ha         1 P4N       0.140000
     35 H3         -11.9200    -4.1330    14.7390 h1         1 P4N       0.102367
     36 H4         -13.5580    -4.6350    15.2390 h1         1 P4N       0.102367
     37 H5         -13.3300    -3.1210    14.3200 h1         1 P4N       0.102367
     38 H6         -18.0930    -3.2340    19.3770 h1         1 P4N       0.070200
     39 H7         -17.8270    -4.4820    18.1760 h1         1 P4N       0.070200
     40 H8         -16.3060    -1.0110    23.8370 hn         1 P4N       0.515000
     41 H9         -17.0750    -0.7250    20.2830 ha         1 P4N       0.141000
     42 H10        -21.4980     0.6850    23.7580 hc         1 P4N       0.060200
     43 H11        -20.2770     1.5770    24.6410 hc         1 P4N       0.060200
     44 H12        -20.4370     3.4740    23.0920 hc         1 P4N       0.077200
     45 H13        -22.0590     3.0760    23.6360 hc         1 P4N       0.077200
     46 H14        -14.7150    -4.1940    18.1180 ha         1 P4N       0.137000
     47 H15        -17.9040    -1.3500    17.8880 ha         1 P4N       0.116000
     48 H16        -16.3560    -5.5570    19.4960 hn         1 P4N       0.509000
     49 H17        -14.0910    -4.6960    23.6110 h4         1 P4N       0.038100
     50 H18        -18.4560    -0.0760    24.2860 ha         1 P4N       0.118000
     51 H19        -18.9620     0.5750    19.4280 ha         1 P4N       0.115000
     52 H20        -21.0820     1.6450    19.8960 hn         1 P4N       0.157000
     53 C11        -17.3190    -3.8090    18.8690 c3         1 P4N       0.277100
     54 C19        -14.6460    -6.1940    21.4030 c3         1 P4N       0.380300
@<TRIPOS>BOND
     1     1     2 ar  
     2     1    15 ar  
     3     1    33 1   
     4     2     3 ar  
     5     2    34 1   
     6     3    13 ar  
     7     3    16 1   
     8     4    16 1   
     9     4    35 1   
    10     4    36 1   
    11     4    37 1   
    12     5    19 1   
    13     5    20 ar  
    14     5    23 ar  
    15     6     7 1   
    16     6    20 ar  
    17     6    21 ar  
    18     7     8 1   
    19     7    40 1   
    20     8     9 ar  
    21     8    27 ar  
    22     9    28 ar  
    23     9    41 1   
    24    10    11 1   
    25    10    30 1   
    26    10    42 1   
    27    10    43 1   
    28    11    12 1   
    29    11    44 1   
    30    11    45 1   
    31    12    31 1   
    32    12    32 2   
    33    13    14 ar  
    34    13    46 1   
    35    14    15 ar  
    36    14    53 1   
    37    15    47 1   
    38    16    17 2   
    39    16    18 2   
    40    19    48 1   
    41    19    53 1   
    42    21    22 ar  
    43    22    23 ar  
    44    22    49 1   
    45    23    54 1   
    46    24    54 1   
    47    25    54 1   
    48    26    54 1   
    49    27    30 ar  
    50    27    50 1   
    51    28    29 ar  
    52    28    51 1   
    53    29    30 ar  
    54    29    31 1   
    55    31    52 1   
    56    38    53 1   
    57    39    53 1   
@<TRIPOS>SUBSTRUCTURE
     1 P4N         1 TEMP              0 ****  ****    0 ROOT
