@<TRIPOS>MOLECULE
P4O
   42    46     1     0     0
SMALL
No Charge or Current Charge


@<TRIPOS>ATOM
      1 C19         -3.1570     4.0340    -1.3520 ca         1 P4O      -0.016000
      2 C20         -4.4380     4.6120    -1.3560 ca         1 P4O      -0.090000
      3 C25         -4.6160     5.9360    -1.8020 ca         1 P4O      -0.084000
      4 C24         -5.8980     6.5110    -1.8040 ca         1 P4O      -0.109000
      5 C23         -7.0000     5.7630    -1.3600 ca         1 P4O      -0.097000
      6 C22         -6.8190     4.4420    -0.9150 ca         1 P4O      -0.086000
      7 C21         -5.5420     3.8480    -0.9060 ca         1 P4O       0.273000
      8 N16         -5.3960     2.5760    -0.4740 nb         1 P4O      -0.665000
      9 C17         -4.1600     2.0260    -0.4710 ca         1 P4O       0.365900
     10 C18         -2.9910     2.7020    -0.8940 cp         1 P4O      -0.210500
     11 C14         -1.6520     2.0300    -0.8670 cp         1 P4O       0.420500
     12 C13         -1.3710     0.9110    -0.0420 ca         1 P4O      -0.169000
     13 N15         -0.7030     2.5590    -1.6680 nb         1 P4O      -0.676000
     14 C10          0.5240     1.9960    -1.6890 ca         1 P4O       0.350900
     15 C11          0.8670     0.8840    -0.9080 ca         1 P4O      -0.156000
     16 C12         -0.0950     0.3170    -0.0520 ca         1 P4O       0.047000
     17 C2           0.1980    -0.8420     0.8010 cc         1 P4O      -0.157000
     18 C3           1.4430    -1.3960     0.9710 cd         1 P4O      -0.068000
     19 C4           1.3220    -2.4790     1.8710 cd         1 P4O      -0.233600
     20 C6           2.3720    -3.4050     2.3640 c          1 P4O       0.604600
     21 O26          3.5280    -3.4020     1.9730 o          1 P4O      -0.559000
     22 N7           1.9440    -4.2840     3.3370 ns         1 P4O      -0.510900
     23 C8           0.6230    -4.2630     4.0030 c6         1 P4O       0.116000
     24 C9          -0.5180    -3.6950     3.1200 c6         1 P4O      -0.026100
     25 C5           0.0120    -2.5950     2.2440 cc         1 P4O      -0.120300
     26 N1          -0.6890    -1.5830     1.5880 na         1 P4O      -0.079000
     27 H19         -2.3020     4.6150    -1.6920 ha         1 P4O       0.140000
     28 H25         -3.7660     6.5200    -2.1470 ha         1 P4O       0.119000
     29 H24         -6.0360     7.5330    -2.1490 ha         1 P4O       0.117000
     30 H23         -7.9940     6.2060    -1.3610 ha         1 P4O       0.117000
     31 H22         -7.6770     3.8690    -0.5730 ha         1 P4O       0.131000
     32 H17         -4.1180     0.9940    -0.1300 h4         1 P4O       0.012100
     33 H13         -2.1380     0.5210     0.6170 ha         1 P4O       0.112000
     34 H10          1.2550     2.4520    -2.3560 h4         1 P4O       0.023100
     35 H11          1.8720     0.4840    -0.9840 ha         1 P4O       0.132000
     36 H3           2.3710    -1.0700     0.5100 ha         1 P4O       0.151000
     37 H1          -1.6880    -1.4250     1.6600 hn         1 P4O       0.349000
     38 H7           2.6430    -4.9310     3.6800 hn         1 P4O       0.315500
     39 H8C1         0.7200    -3.6350     4.9000 h1         1 P4O       0.044700
     40 H8C2         0.3690    -5.2790     4.3370 h1         1 P4O       0.044700
     41 H9C1        -1.3460    -3.3500     3.7530 hc         1 P4O       0.063700
     42 H9C2        -0.9210    -4.5020     2.4930 hc         1 P4O       0.063700
@<TRIPOS>BOND
     1     1     2 ar  
     2     1    10 ar  
     3     1    27 1   
     4     2     3 ar  
     5     2     7 ar  
     6     3     4 ar  
     7     3    28 1   
     8     4     5 ar  
     9     4    29 1   
    10     5     6 ar  
    11     5    30 1   
    12     6     7 ar  
    13     6    31 1   
    14     7     8 ar  
    15     8     9 ar  
    16     9    10 ar  
    17     9    32 1   
    18    10    11 1   
    19    11    12 ar  
    20    11    13 ar  
    21    12    16 ar  
    22    12    33 1   
    23    13    14 ar  
    24    14    15 ar  
    25    14    34 1   
    26    15    16 ar  
    27    15    35 1   
    28    16    17 1   
    29    17    18 2   
    30    17    26 1   
    31    18    19 1   
    32    18    36 1   
    33    19    20 1   
    34    19    25 2   
    35    20    21 2   
    36    20    22 1   
    37    22    23 1   
    38    22    38 1   
    39    23    24 1   
    40    23    39 1   
    41    23    40 1   
    42    24    25 1   
    43    24    41 1   
    44    24    42 1   
    45    25    26 1   
    46    26    37 1   
@<TRIPOS>SUBSTRUCTURE
     1 P4O         1 TEMP              0 ****  ****    0 ROOT
