@<TRIPOS>MOLECULE
P4O
   42    46     1     0     0
SMALL
abcg2


@<TRIPOS>ATOM
      1 C19         -3.0910     3.9470    -1.2870 ca         1 P4O      -0.016000
      2 C20         -4.3700     4.5350    -1.2780 ca         1 P4O      -0.090000
      3 C25         -4.5970     5.8770    -1.6630 ca         1 P4O      -0.084000
      4 C24         -5.8620     6.3960    -1.6370 ca         1 P4O      -0.109000
      5 C23         -6.9510     5.5980    -1.2250 ca         1 P4O      -0.097000
      6 C22         -6.7600     4.2960    -0.8470 ca         1 P4O      -0.086000
      7 C21         -5.4640     3.7350    -0.8640 ca         1 P4O       0.273000
      8 N16         -5.3020     2.4430    -0.4920 nb         1 P4O      -0.665000
      9 C17         -4.1020     1.9350    -0.5070 ca         1 P4O       0.365900
     10 C18         -2.9340     2.6420    -0.8920 cp         1 P4O      -0.210500
     11 C14         -1.6030     2.0010    -0.8950 cp         1 P4O       0.420500
     12 C13         -1.3210     0.9090    -0.0790 ca         1 P4O      -0.169000
     13 N15         -0.6920     2.5400    -1.7030 nb         1 P4O      -0.676000
     14 C10          0.5170     1.9960    -1.7260 ca         1 P4O       0.350900
     15 C11          0.8860     0.9000    -0.9700 ca         1 P4O      -0.156000
     16 C12         -0.0530     0.3270    -0.1100 ca         1 P4O       0.047000
     17 C2           0.3000    -0.8140     0.7130 cc         1 P4O      -0.157000
     18 C3           1.5320    -1.3910     0.9370 cd         1 P4O      -0.068000
     19 C4           1.3300    -2.4540     1.8420 cd         1 P4O      -0.233600
     20 C6           2.2660    -3.4390     2.3790 c          1 P4O       0.604600
     21 O26          3.4280    -3.5390     2.0020 o          1 P4O      -0.559000
     22 N7           1.7160    -4.2660     3.3020 ns         1 P4O      -0.510900
     23 C8           0.4640    -3.9850     3.9880 c6         1 P4O       0.116000
     24 C9          -0.6220    -3.5320     3.0180 c6         1 P4O      -0.026100
     25 C5          -0.0170    -2.5030     2.1370 cc         1 P4O      -0.120300
     26 N1          -0.6240    -1.5180     1.4560 na         1 P4O      -0.079000
     27 H19         -2.2350     4.5310    -1.5990 ha         1 P4O       0.140000
     28 H25         -3.7560     6.4840    -1.9760 ha         1 P4O       0.119000
     29 H24         -6.0350     7.4220    -1.9310 ha         1 P4O       0.117000
     30 H23         -7.9460     6.0220    -1.2120 ha         1 P4O       0.117000
     31 H22         -7.5900     3.6770    -0.5310 ha         1 P4O       0.131000
     32 H17         -4.0270     0.8900    -0.2210 h4         1 P4O       0.012100
     33 H13         -2.0820     0.5390     0.5950 ha         1 P4O       0.112000
     34 H10          1.2380     2.4540    -2.3940 h4         1 P4O       0.023100
     35 H11          1.8880     0.5040    -1.0580 ha         1 P4O       0.132000
     36 H3           2.4720    -1.0710     0.5170 ha         1 P4O       0.151000
     37 H1          -1.6170    -1.3470     1.4750 hn         1 P4O       0.349000
     38 H7           2.3470    -4.9110     3.7540 hn         1 P4O       0.315500
     39 H8C1         0.6090    -3.2120     4.7500 h1         1 P4O       0.044700
     40 H8C2         0.1520    -4.8930     4.5000 h1         1 P4O       0.044700
     41 H9C1        -1.4730    -3.1430     3.5790 hc         1 P4O       0.063700
     42 H9C2        -0.9840    -4.3750     2.4220 hc         1 P4O       0.063700
@<TRIPOS>BOND
     1     1     2 ar  
     2     1    10 ar  
     3     1    27 1   
     4     2     3 ar  
     5     2     7 ar  
     6     3     4 ar  
     7     3    28 1   
     8     4     5 ar  
     9     4    29 1   
    10     5     6 ar  
    11     5    30 1   
    12     6     7 ar  
    13     6    31 1   
    14     7     8 ar  
    15     8     9 ar  
    16     9    10 ar  
    17     9    32 1   
    18    10    11 1   
    19    11    12 ar  
    20    11    13 ar  
    21    12    16 ar  
    22    12    33 1   
    23    13    14 ar  
    24    14    15 ar  
    25    14    34 1   
    26    15    16 ar  
    27    15    35 1   
    28    16    17 1   
    29    17    18 2   
    30    17    26 1   
    31    18    19 1   
    32    18    36 1   
    33    19    20 1   
    34    19    25 2   
    35    20    21 2   
    36    20    22 1   
    37    22    23 1   
    38    22    38 1   
    39    23    24 1   
    40    23    39 1   
    41    23    40 1   
    42    24    25 1   
    43    24    41 1   
    44    24    42 1   
    45    25    26 1   
    46    26    37 1   
@<TRIPOS>SUBSTRUCTURE
     1 P4O         1 TEMP              0 ****  ****    0 ROOT
