@<TRIPOS>MOLECULE
P4P
   45    48     1     0     0
SMALL
abcg2


@<TRIPOS>ATOM
      1 P           -0.0220     0.0090     0.0150 p5         1 P4P       1.233000
      2 C1A          1.2260     1.2540    -0.3250 ca         1 P4P      -0.397750
      3 C2A          2.4140     1.2230     0.4080 ca         1 P4P      -0.035625
      4 C3A          3.3840     2.1840     0.1800 ca         1 P4P      -0.109250
      5 C4A          3.1750     3.1680    -0.7790 ca         1 P4P      -0.034750
      6 C5A          1.9970     3.1930    -1.5120 ca         1 P4P      -0.109250
      7 C6A          1.0180     2.2360    -1.2890 ca         1 P4P      -0.035625
      8 C1C         -1.2490    -0.0190    -1.2960 ca         1 P4P      -0.397750
      9 C6C         -1.2470    -1.0240    -2.2590 ca         1 P4P      -0.035625
     10 C5C         -2.1920    -1.0000    -3.2740 ca         1 P4P      -0.109250
     11 C4C         -3.1310     0.0210    -3.3280 ca         1 P4P      -0.034750
     12 C3C         -3.1340     1.0220    -2.3630 ca         1 P4P      -0.109250
     13 C2C         -2.1970     1.0040    -1.3430 ca         1 P4P      -0.035625
     14 C1D          0.8130    -1.5770     0.1180 ca         1 P4P      -0.397750
     15 C6D          0.4940    -2.4970     1.1140 ca         1 P4P      -0.035625
     16 C5D          1.1360    -3.7270     1.1390 ca         1 P4P      -0.109250
     17 C4D          2.0820    -4.0380     0.1740 ca         1 P4P      -0.034750
     18 C3D          2.4050    -3.1180    -0.8160 ca         1 P4P      -0.109250
     19 C2D          1.7770    -1.8840    -0.8450 ca         1 P4P      -0.035625
     20 C6B         -0.3410     1.2690     2.4760 ca         1 P4P      -0.035625
     21 C5B         -1.0110     1.5010     3.6680 ca         1 P4P      -0.109250
     22 C4B         -2.2020     0.8420     3.9380 ca         1 P4P      -0.034750
     23 C3B         -2.7330    -0.0510     3.0150 ca         1 P4P      -0.109250
     24 C2B         -2.0740    -0.2870     1.8200 ca         1 P4P      -0.035625
     25 C1B         -0.8720     0.3710     1.5540 ca         1 P4P      -0.397750
     26 H2A          2.5900     0.4540     1.1510 ha         1 P4P       0.124875
     27 H3A          4.3040     2.1620     0.7480 ha         1 P4P       0.138000
     28 H4A          3.9380     3.9140    -0.9600 ha         1 P4P       0.138000
     29 H5A          1.8400     3.9530    -2.2640 ha         1 P4P       0.138000
     30 H6A          0.1100     2.2570    -1.8760 ha         1 P4P       0.124875
     31 H6C         -0.5260    -1.8300    -2.2270 ha         1 P4P       0.124875
     32 H5C         -2.1940    -1.7820    -4.0200 ha         1 P4P       0.138000
     33 H4C         -3.8670     0.0350    -4.1200 ha         1 P4P       0.138000
     34 H3C         -3.8690     1.8140    -2.4010 ha         1 P4P       0.138000
     35 H2C         -2.2140     1.7840    -0.5920 ha         1 P4P       0.124875
     36 H6D         -0.2420    -2.2670     1.8730 ha         1 P4P       0.124875
     37 H5D          0.8930    -4.4410     1.9140 ha         1 P4P       0.138000
     38 H4D          2.5770    -5.0000     0.1960 ha         1 P4P       0.138000
     39 H3D          3.1470    -3.3570    -1.5640 ha         1 P4P       0.138000
     40 H2D          2.0440    -1.1700    -1.6140 ha         1 P4P       0.124875
     41 H5B         -0.6010     2.2010     4.3830 ha         1 P4P       0.138000
     42 H4B         -2.7210     1.0270     4.8680 ha         1 P4P       0.138000
     43 H3B         -3.6650    -0.5600     3.2230 ha         1 P4P       0.138000
     44 H2B         -2.5020    -0.9790     1.1050 ha         1 P4P       0.124875
     45 H6B          0.5840     1.7940     2.2760 ha         1 P4P       0.124875
@<TRIPOS>BOND
     1     1     2 1   
     2     1     8 1   
     3     1    14 1   
     4     1    25 1   
     5     2     3 ar  
     6     2     7 ar  
     7     3     4 ar  
     8     3    26 1   
     9     4     5 ar  
    10     4    27 1   
    11     5     6 ar  
    12     5    28 1   
    13     6     7 ar  
    14     6    29 1   
    15     7    30 1   
    16     8     9 ar  
    17     8    13 ar  
    18     9    10 ar  
    19     9    31 1   
    20    10    11 ar  
    21    10    32 1   
    22    11    12 ar  
    23    11    33 1   
    24    12    13 ar  
    25    12    34 1   
    26    13    35 1   
    27    14    15 ar  
    28    14    19 ar  
    29    15    16 ar  
    30    15    36 1   
    31    16    17 ar  
    32    16    37 1   
    33    17    18 ar  
    34    17    38 1   
    35    18    19 ar  
    36    18    39 1   
    37    19    40 1   
    38    20    21 ar  
    39    20    25 ar  
    40    20    45 1   
    41    21    22 ar  
    42    21    41 1   
    43    22    23 ar  
    44    22    42 1   
    45    23    24 ar  
    46    23    43 1   
    47    24    25 ar  
    48    24    44 1   
@<TRIPOS>SUBSTRUCTURE
     1 P4P         1 TEMP              0 ****  ****    0 ROOT
