@<TRIPOS>MOLECULE
P4Q
   17    18     1     0     0
SMALL
No Charge or Current Charge


@<TRIPOS>ATOM
      1 C4          11.8680     3.2530    18.8360 ca         1 P4Q      -0.138000
      2 C3          12.6520     2.1470    19.2050 ca         1 P4Q      -0.065000
      3 C2          13.9800     2.3580    19.6170 ca         1 P4Q       0.018000
      4 C1          16.0260     1.5840    20.3560 ca         1 P4Q       0.178900
      5 C           15.8340     3.8380    20.0740 ca         1 P4Q       0.421900
      6 C5          12.4310     4.5370    18.8880 ca         1 P4Q       0.327900
      7 C6          14.4780     3.6940    19.6460 ca         1 P4Q       0.118000
      8 N1          16.6040     2.7980    20.4220 nb         1 P4Q      -0.297000
      9 N2          14.7610     1.3140    19.9750 nb         1 P4Q      -0.213000
     10 N3          13.7060     4.7620    19.2810 nb         1 P4Q      -0.653000
     11 H1          10.8390     3.1220    18.5130 ha         1 P4Q       0.127000
     12 H2          12.2360     1.1420    19.1710 ha         1 P4Q       0.139000
     13 H3          16.6420     0.7320    20.6390 h5         1 P4Q       0.045100
     14 H4          17.4820     5.0630    20.1670 hn         1 P4Q       0.511500
     15 H5          16.0020     5.8420    19.7140 hn         1 P4Q       0.511500
     16 H6          11.8450     5.4110    18.6060 h4         1 P4Q       0.022100
     17 N           16.4660     5.0510    20.1570 nv         1 P4Q      -1.056900
@<TRIPOS>BOND
     1     1     2 ar  
     2     1     6 ar  
     3     1    11 1   
     4     2     3 ar  
     5     2    12 1   
     6     3     7 ar  
     7     3     9 ar  
     8     4     8 ar  
     9     4     9 ar  
    10     4    13 1   
    11     5     7 ar  
    12     5     8 ar  
    13     5    17 1   
    14     6    10 ar  
    15     6    16 1   
    16     7    10 ar  
    17    14    17 1   
    18    15    17 1   
@<TRIPOS>SUBSTRUCTURE
     1 P4Q         1 TEMP              0 ****  ****    0 ROOT
