@<TRIPOS>MOLECULE
P4Q
   17    18     1     0     0
SMALL
bcc


@<TRIPOS>ATOM
      1 C4          11.9190     3.2630    18.8670 ca         1 P4Q      -0.221300
      2 C3          12.6520     2.1650    19.2290 ca         1 P4Q      -0.148300
      3 C2          13.9950     2.3420    19.6190 ca         1 P4Q       0.346300
      4 C1          15.9880     1.5720    20.3310 ca         1 P4Q       0.704900
      5 C           15.8630     3.8210    20.0120 ca         1 P4Q       0.684900
      6 C5          12.5240     4.5340    18.8950 ca         1 P4Q       0.393200
      7 C6          14.4900     3.6540    19.6090 ca         1 P4Q       0.118000
      8 N1          16.5840     2.7700    20.3670 nb         1 P4Q      -0.823000
      9 N2          14.7620     1.2830    19.9860 nb         1 P4Q      -0.739000
     10 N3          13.7690     4.7270    19.2540 nb         1 P4Q      -0.653000
     11 H1          10.8860     3.1700    18.5620 ha         1 P4Q       0.145000
     12 H2          12.2270     1.1690    19.2220 ha         1 P4Q       0.157000
     13 H3          16.6160     0.7380    20.6300 h5         1 P4Q       0.045100
     14 H4          17.3620     5.1630    20.2990 hn         1 P4Q       0.456300
     15 H5          15.8620     5.8350    19.7470 hn         1 P4Q       0.456300
     16 H6          11.9530     5.4100    18.6090 h4         1 P4Q       0.022100
     17 N           16.4020     5.0340    20.0280 nv         1 P4Q      -0.946500
@<TRIPOS>BOND
     1     1     2 ar  
     2     1     6 ar  
     3     1    11 1   
     4     2     3 ar  
     5     2    12 1   
     6     3     7 ar  
     7     3     9 ar  
     8     4     8 ar  
     9     4     9 ar  
    10     4    13 1   
    11     5     7 ar  
    12     5     8 ar  
    13     5    17 1   
    14     6    10 ar  
    15     6    16 1   
    16     7    10 ar  
    17    14    17 1   
    18    15    17 1   
@<TRIPOS>SUBSTRUCTURE
     1 P4Q         1 TEMP              0 ****  ****    0 ROOT
