@<TRIPOS>MOLECULE
P4R
   41    45     1     0     0
SMALL
No Charge or Current Charge


@<TRIPOS>ATOM
      1 N1           7.7600    -0.4210    21.1640 n          1 P4R      -0.223000
      2 C4           9.4890     1.3270    24.8590 c6         1 P4R       0.160600
      3 C5           8.8420     0.0090    24.3950 c6         1 P4R      -0.117400
      4 C6           9.2890    -0.3400    22.9540 c5         1 P4R       0.100700
      5 C7           7.9610    -1.7170    21.5870 c          1 P4R       0.619000
      6 C8           8.5210     0.5050    21.8690 c          1 P4R       0.564000
      7 C10          7.1980    -0.5940    18.7720 ca         1 P4R       0.351900
      8 C13          3.8890     1.8980    19.1270 ca         1 P4R      -0.077000
      9 C15          4.2370     2.1240    21.5240 ca         1 P4R      -0.085000
     10 C17          5.7760     0.7650    20.1970 ca         1 P4R       0.004000
     11 O2           8.5770     1.7070    21.6350 o          1 P4R      -0.478000
     12 O           10.9250     1.2120    24.8330 os         1 P4R      -0.342100
     13 C18         10.8040    -0.1440    22.8090 ca         1 P4R      -0.171300
     14 C3          11.5380     0.6220    23.7480 ca         1 P4R       0.167100
     15 C2          12.9270     0.7800    23.6110 ca         1 P4R      -0.137000
     16 C1          13.6020     0.1990    22.5250 ca         1 P4R      -0.053000
     17 C19         11.4960    -0.7160    21.7160 ca         1 P4R      -0.043000
     18 C           12.8840    -0.5450    21.5780 ca         1 P4R       0.085000
     19 Cl          13.7240    -1.2700    20.2130 cl         1 P4R      -0.202000
     20 O1           7.4420    -2.7200    21.1270 o          1 P4R      -0.520000
     21 N            8.8540    -1.7030    22.6130 ns         1 P4R      -0.514900
     22 C9           6.9050    -0.0770    20.0540 ca         1 P4R      -0.076000
     23 C16          5.3680     1.2930    21.4430 ca         1 P4R      -0.099000
     24 C14          3.5010     2.4300    20.3670 ca         1 P4R      -0.110000
     25 C12          5.0210     1.0630    19.0420 ca         1 P4R      -0.095000
     26 C11          5.4090     0.5090    17.8060 ca         1 P4R       0.370900
     27 N2           6.4750    -0.3110    17.6650 nb         1 P4R      -0.654000
     28 H2           9.1690     1.5740    25.8810 h1         1 P4R       0.075200
     29 H3           7.7470     0.0820    24.4510 hc         1 P4R       0.069200
     30 H4           9.1390    -0.7940    25.0830 hc         1 P4R       0.069200
     31 H5           8.0570    -1.2490    18.6250 h4         1 P4R       0.031100
     32 H6           3.3090     2.1320    18.2360 ha         1 P4R       0.120000
     33 H7           3.9290     2.5300    22.4850 ha         1 P4R       0.115000
     34 H8          13.4780     1.3600    24.3470 ha         1 P4R       0.137000
     35 H9          14.6770     0.3260    22.4170 ha         1 P4R       0.136000
     36 H10         10.9640    -1.3000    20.9690 ha         1 P4R       0.136000
     37 H11          9.1300    -2.5710    23.0570 hn         1 P4R       0.353500
     38 H12          5.9090     1.0620    22.3560 ha         1 P4R       0.113000
     39 H13          2.6270     3.0740    20.4330 ha         1 P4R       0.119000
     40 H14          4.8440     0.7210    16.8990 h4         1 P4R       0.023100
     41 H1           9.1860     2.1540    24.2020 h1         1 P4R       0.075200
@<TRIPOS>BOND
     1     1     5 1   
     2     1     6 1   
     3     1    22 1   
     4     2     3 1   
     5     2    12 1   
     6     2    28 1   
     7     2    41 1   
     8     3     4 1   
     9     3    29 1   
    10     3    30 1   
    11     4     6 1   
    12     4    13 1   
    13     4    21 1   
    14     5    20 2   
    15     5    21 1   
    16     6    11 2   
    17     7    22 ar  
    18     7    27 ar  
    19     7    31 1   
    20     8    24 ar  
    21     8    25 ar  
    22     8    32 1   
    23     9    23 ar  
    24     9    24 ar  
    25     9    33 1   
    26    10    22 ar  
    27    10    23 ar  
    28    10    25 ar  
    29    12    14 1   
    30    13    14 ar  
    31    13    17 ar  
    32    14    15 ar  
    33    15    16 ar  
    34    15    34 1   
    35    16    18 ar  
    36    16    35 1   
    37    17    18 ar  
    38    17    36 1   
    39    18    19 1   
    40    21    37 1   
    41    23    38 1   
    42    24    39 1   
    43    25    26 ar  
    44    26    27 ar  
    45    26    40 1   
@<TRIPOS>SUBSTRUCTURE
     1 P4R         1 TEMP              0 ****  ****    0 ROOT
