@<TRIPOS>MOLECULE
P4R
   41    45     1     0     0
SMALL
abcg2


@<TRIPOS>ATOM
      1 N1           7.8110    -0.3450    21.0840 n          1 P4R      -0.223000
      2 C4           9.5250     1.4830    24.6560 c6         1 P4R       0.160600
      3 C5           8.8270     0.1980    24.2680 c6         1 P4R      -0.117400
      4 C6           9.3060    -0.2860    22.8880 c5         1 P4R       0.100700
      5 C7           7.8990    -1.6650    21.6020 c          1 P4R       0.619000
      6 C8           8.6260     0.5260    21.7680 c          1 P4R       0.564000
      7 C10          7.3480    -0.3050    18.7180 ca         1 P4R       0.351900
      8 C13          3.8150     1.8190    19.2310 ca         1 P4R      -0.077000
      9 C15          4.1260     1.8050    21.6240 ca         1 P4R      -0.085000
     10 C17          5.7770     0.7370    20.2300 ca         1 P4R       0.004000
     11 O2           8.7680     1.7050    21.5390 o          1 P4R      -0.478000
     12 O           10.9510     1.3070    24.7150 os         1 P4R      -0.342100
     13 C18         10.8150    -0.1740    22.7920 ca         1 P4R      -0.171300
     14 C3          11.5300     0.6170    23.6990 ca         1 P4R       0.167100
     15 C2          12.9210     0.7000    23.6050 ca         1 P4R      -0.137000
     16 C1          13.6030     0.0200    22.6120 ca         1 P4R      -0.053000
     17 C19         11.5080    -0.8540    21.7910 ca         1 P4R      -0.043000
     18 C           12.8840    -0.7520    21.7050 ca         1 P4R       0.085000
     19 CL          13.7350    -1.6100    20.4350 cl         1 P4R      -0.202000
     20 O1           7.2600    -2.6110    21.1940 o          1 P4R      -0.520000
     21 N            8.8120    -1.6210    22.5940 ns         1 P4R      -0.514900
     22 C9           6.9780     0.0240    19.9940 ca         1 P4R      -0.076000
     23 C16          5.2990     1.1030    21.5090 ca         1 P4R      -0.099000
     24 C14          3.3790     2.1710    20.4820 ca         1 P4R      -0.110000
     25 C12          5.0190     1.0930    19.0790 ca         1 P4R      -0.095000
     26 C11          5.5040     0.6950    17.8100 ca         1 P4R       0.370900
     27 N2           6.6150     0.0190    17.6240 nb         1 P4R      -0.654000
     28 H2           9.2300     1.8010    25.6530 h1         1 P4R       0.075200
     29 H3           7.7460     0.3450    24.2620 hc         1 P4R       0.069200
     30 H4           9.0590    -0.5840    24.9950 hc         1 P4R       0.069200
     31 H5           8.2680    -0.8510    18.5480 h4         1 P4R       0.031100
     32 H6           3.2490     2.0870    18.3480 ha         1 P4R       0.120000
     33 H7           3.7630     2.0830    22.6060 ha         1 P4R       0.115000
     34 H8          13.4570     1.3090    24.3210 ha         1 P4R       0.137000
     35 H9          14.6790     0.0890    22.5400 ha         1 P4R       0.136000
     36 H10         10.9650    -1.4700    21.0870 ha         1 P4R       0.136000
     37 H11          8.9740    -2.4120    23.1980 hn         1 P4R       0.353500
     38 H12          5.8560     0.8250    22.3930 ha         1 P4R       0.113000
     39 H13          2.4580     2.7270    20.6030 ha         1 P4R       0.119000
     40 H14          4.9290     0.9590    16.9270 h4         1 P4R       0.023100
     41 H1           9.3030     2.2800    23.9440 h1         1 P4R       0.075200
@<TRIPOS>BOND
     1     1     5 1   
     2     1     6 1   
     3     1    22 1   
     4     2     3 1   
     5     2    12 1   
     6     2    28 1   
     7     2    41 1   
     8     3     4 1   
     9     3    29 1   
    10     3    30 1   
    11     4     6 1   
    12     4    13 1   
    13     4    21 1   
    14     5    20 2   
    15     5    21 1   
    16     6    11 2   
    17     7    22 ar  
    18     7    27 ar  
    19     7    31 1   
    20     8    24 ar  
    21     8    25 ar  
    22     8    32 1   
    23     9    23 ar  
    24     9    24 ar  
    25     9    33 1   
    26    10    22 ar  
    27    10    23 ar  
    28    10    25 ar  
    29    12    14 1   
    30    13    14 ar  
    31    13    17 ar  
    32    14    15 ar  
    33    15    16 ar  
    34    15    34 1   
    35    16    18 ar  
    36    16    35 1   
    37    17    18 ar  
    38    17    36 1   
    39    18    19 1   
    40    21    37 1   
    41    23    38 1   
    42    24    39 1   
    43    25    26 ar  
    44    26    27 ar  
    45    26    40 1   
@<TRIPOS>SUBSTRUCTURE
     1 P4R         1 TEMP              0 ****  ****    0 ROOT
