@<TRIPOS>MOLECULE
P4S
   61    66     1     0     0
SMALL
No Charge or Current Charge


@<TRIPOS>ATOM
      1 C1           3.1420     0.3650    -0.8860 c6         1 P4S      -0.050000
      2 C2           4.1800     1.4500    -0.4120 c6         1 P4S      -0.071400
      3 C3           4.5530     1.3510     1.0910 c6         1 P4S      -0.113400
      4 C4           5.0820    -0.0550     1.4630 c6         1 P4S       0.169300
      5 C5           4.0740    -1.1480     1.0290 c6         1 P4S      -0.107400
      6 C6           3.7090    -1.0720    -0.4930 c6         1 P4S       0.204000
      7 C7           2.6950    -2.1920    -0.8710 c6         1 P4S      -0.072400
      8 O1          -5.4990    -1.1510     0.3290 os         1 P4S      -0.330200
      9 O3           4.9250    -1.3380    -1.1920 oh         1 P4S      -0.674000
     10 O4           6.3560    -0.2840     0.8460 oh         1 P4S      -0.676000
     11 C20         -6.4140    -0.4010    -0.3500 c          1 P4S       0.659300
     12 C19         -4.2670    -0.7110     0.7670 cc         1 P4S       0.078100
     13 C21         -6.0200     0.9750    -0.6100 cc         1 P4S      -0.344200
     14 C22         -4.8100     1.4790    -0.2100 cd         1 P4S      -0.077000
     15 C18         -3.9000     0.6080     0.4860 cd         1 P4S      -0.210200
     16 C17         -2.5200     1.0790     0.9980 c5         1 P4S       0.009500
     17 C13         -1.3680     1.0360    -0.0950 c5         1 P4S      -0.032000
     18 C23         -1.8680     1.1860    -1.5640 c3         1 P4S      -0.073100
     19 C12         -0.3060     2.1510     0.2030 c6         1 P4S      -0.069400
     20 C11          1.0460     1.9570    -0.5330 c6         1 P4S      -0.073400
     21 C10          1.7130     0.5760    -0.2050 c6         1 P4S      -0.043700
     22 C            3.0320     0.5150    -2.4510 c3         1 P4S      -0.081100
     23 C16         -1.9140     0.2740     2.2030 c5         1 P4S      -0.077400
     24 C15         -0.9520    -0.7400     1.5580 cx         1 P4S       0.072300
     25 O           -1.4660    -1.4900     0.4320 op         1 P4S      -0.437000
     26 C14         -0.6630    -0.3250     0.1410 cx         1 P4S       0.109000
     27 C9           0.7080    -0.5790    -0.5450 c6         1 P4S      -0.031700
     28 C8           1.3030    -1.9860    -0.2310 c6         1 P4S      -0.069400
     29 H1           5.1020     1.3560    -1.0020 hc         1 P4S       0.045700
     30 H2           3.8240     2.4630    -0.6340 hc         1 P4S       0.045700
     31 H3           5.3100     2.1090     1.3330 hc         1 P4S       0.045200
     32 H4           3.6830     1.5950     1.7150 hc         1 P4S       0.045200
     33 H5           5.1940    -0.1060     2.5570 h1         1 P4S       0.038700
     34 H6           4.4910    -2.1370     1.2640 hc         1 P4S       0.059700
     35 H7           3.1800    -1.0590     1.6570 hc         1 P4S       0.059700
     36 H8           2.5870    -2.2540    -1.9620 hc         1 P4S       0.056700
     37 H9           3.0910    -3.1700    -0.5630 hc         1 P4S       0.056700
     38 H10          5.6140    -0.9710    -0.5770 ho         1 P4S       0.470000
     39 H11          6.9990     0.3030     1.3040 ho         1 P4S       0.448000
     40 H12         -3.7100    -1.4760     1.2950 h4         1 P4S       0.241000
     41 H13         -6.7490     1.5740    -1.1430 ha         1 P4S       0.213000
     42 H14         -4.5440     2.5140    -0.4150 ha         1 P4S       0.186000
     43 H15         -2.6530     2.1170     1.3270 hc         1 P4S       0.056700
     44 H16         -2.3790     2.1440    -1.7140 hc         1 P4S       0.041033
     45 H17         -1.0510     1.1350    -2.2910 hc         1 P4S       0.041033
     46 H18         -2.5700     0.3860    -1.8300 hc         1 P4S       0.041033
     47 H19         -0.7220     3.1350    -0.0550 hc         1 P4S       0.041200
     48 H20         -0.0970     2.1980     1.2800 hc         1 P4S       0.041200
     49 H21          0.8920     2.0740    -1.6120 hc         1 P4S       0.044700
     50 H22          1.7040     2.7810    -0.2320 hc         1 P4S       0.044700
     51 H23          1.8450     0.5610     0.8830 hc         1 P4S       0.043700
     52 H24          3.9940     0.3320    -2.9410 hc         1 P4S       0.038700
     53 H25          2.3100    -0.1740    -2.9010 hc         1 P4S       0.038700
     54 H26          2.7390     1.5290    -2.7450 hc         1 P4S       0.038700
     55 H27         -1.3490     0.9470     2.8590 hc         1 P4S       0.059700
     56 H28         -2.6660    -0.1900     2.8500 hc         1 P4S       0.059700
     57 H29         -0.1910    -1.2480     2.1490 h1         1 P4S       0.101700
     58 H30          0.5080    -0.5510    -1.6230 hc         1 P4S       0.067700
     59 H31          0.6250    -2.7650    -0.6030 hc         1 P4S       0.046700
     60 H32          1.3750    -2.1460     0.8510 hc         1 P4S       0.046700
     61 O2          -7.4880    -0.8590    -0.7080 o          1 P4S      -0.493000
@<TRIPOS>BOND
     1     1     2 1   
     2     1     6 1   
     3     1    21 1   
     4     1    22 1   
     5     2     3 1   
     6     2    29 1   
     7     2    30 1   
     8     3     4 1   
     9     3    31 1   
    10     3    32 1   
    11     4     5 1   
    12     4    10 1   
    13     4    33 1   
    14     5     6 1   
    15     5    34 1   
    16     5    35 1   
    17     6     7 1   
    18     6     9 1   
    19     7    28 1   
    20     7    36 1   
    21     7    37 1   
    22     8    11 1   
    23     8    12 1   
    24     9    38 1   
    25    10    39 1   
    26    11    13 1   
    27    11    61 2   
    28    12    15 2   
    29    12    40 1   
    30    13    14 2   
    31    13    41 1   
    32    14    15 1   
    33    14    42 1   
    34    15    16 1   
    35    16    17 1   
    36    16    23 1   
    37    16    43 1   
    38    17    18 1   
    39    17    19 1   
    40    17    26 1   
    41    18    44 1   
    42    18    45 1   
    43    18    46 1   
    44    19    20 1   
    45    19    47 1   
    46    19    48 1   
    47    20    21 1   
    48    20    49 1   
    49    20    50 1   
    50    21    27 1   
    51    21    51 1   
    52    22    52 1   
    53    22    53 1   
    54    22    54 1   
    55    23    24 1   
    56    23    55 1   
    57    23    56 1   
    58    24    25 1   
    59    24    26 1   
    60    24    57 1   
    61    25    26 1   
    62    26    27 1   
    63    27    28 1   
    64    27    58 1   
    65    28    59 1   
    66    28    60 1   
@<TRIPOS>SUBSTRUCTURE
     1 P4S         1 TEMP              0 ****  ****    0 ROOT
