@<TRIPOS>MOLECULE
P4S
   61    66     1     0     0
SMALL
bcc


@<TRIPOS>ATOM
      1 C1           3.1110     0.3690    -0.8720 c6         1 P4S      -0.050000
      2 C2           4.0800     1.4640    -0.3860 c6         1 P4S      -0.071400
      3 C3           4.4080     1.4050     1.1000 c6         1 P4S      -0.113400
      4 C4           4.9430     0.0420     1.5140 c6         1 P4S       0.146100
      5 C5           4.0090    -1.0630     1.0420 c6         1 P4S      -0.107400
      6 C6           3.7040    -1.0190    -0.4670 c6         1 P4S       0.180800
      7 C7           2.7440    -2.1460    -0.8380 c6         1 P4S      -0.072400
      8 O1          -5.5530    -0.9830     0.2440 os         1 P4S      -0.330200
      9 O3           4.9010    -1.2800    -1.1860 oh         1 P4S      -0.611800
     10 O4           6.2280    -0.2110     0.9460 oh         1 P4S      -0.613800
     11 C20         -6.4050    -0.1000    -0.3510 c          1 P4S       0.734800
     12 C19         -4.3140    -0.6660     0.6550 cc         1 P4S       0.128100
     13 C21         -5.8980     1.2370    -0.4910 cc         1 P4S      -0.294200
     14 C22         -4.6530     1.5440    -0.0650 cd         1 P4S      -0.027000
     15 C18         -3.7920     0.5670     0.5290 cd         1 P4S      -0.210200
     16 C17         -2.4120     0.9700     0.9820 c5         1 P4S       0.009500
     17 C13         -1.3020     0.9090    -0.1240 c5         1 P4S      -0.032000
     18 C23         -1.8450     0.9750    -1.5470 c3         1 P4S      -0.073100
     19 C12         -0.3000     2.0440     0.1380 c6         1 P4S      -0.069400
     20 C11          1.0260     1.8630    -0.5880 c6         1 P4S      -0.073400
     21 C10          1.7080     0.5400    -0.2250 c6         1 P4S      -0.043700
     22 C            3.0200     0.4920    -2.3970 c3         1 P4S      -0.081100
     23 C16         -1.8450     0.1370     2.1490 c5         1 P4S      -0.077400
     24 C15         -0.8870    -0.8280     1.5090 cx         1 P4S       0.049100
     25 O           -1.4230    -1.4960     0.3670 op         1 P4S      -0.390600
     26 C14         -0.5580    -0.3870     0.1600 cx         1 P4S       0.085800
     27 C9           0.7540    -0.6270    -0.5460 c6         1 P4S      -0.031700
     28 C8           1.3630    -1.9870    -0.2210 c6         1 P4S      -0.069400
     29 H1           5.0050     1.3870    -0.9660 hc         1 P4S       0.045700
     30 H2           3.6840     2.4520    -0.6320 hc         1 P4S       0.045700
     31 H3           5.1360     2.1820     1.3530 hc         1 P4S       0.045200
     32 H4           3.5220     1.6300     1.7010 hc         1 P4S       0.045200
     33 H5           5.0170     0.0000     2.6080 h1         1 P4S       0.038700
     34 H6           4.4340    -2.0430     1.2870 hc         1 P4S       0.059700
     35 H7           3.0910    -0.9860     1.6270 hc         1 P4S       0.059700
     36 H8           2.6560    -2.1960    -1.9280 hc         1 P4S       0.056700
     37 H9           3.1780    -3.0990    -0.5210 hc         1 P4S       0.056700
     38 H10          5.6280    -0.8550    -0.7070 ho         1 P4S       0.431000
     39 H11          6.7920     0.5550     1.0940 ho         1 P4S       0.409000
     40 H12         -3.8130    -1.5170     1.0900 h4         1 P4S       0.191000
     41 H13         -6.5480     1.9780    -0.9350 ha         1 P4S       0.163000
     42 H14         -4.2950     2.5620    -0.1650 ha         1 P4S       0.136000
     43 H15         -2.5040     2.0120     1.3010 hc         1 P4S       0.056700
     44 H16         -2.3730     1.9140    -1.7230 hc         1 P4S       0.041033
     45 H17         -1.0440     0.9200    -2.2840 hc         1 P4S       0.041033
     46 H18         -2.5360     0.1580    -1.7560 hc         1 P4S       0.041033
     47 H19         -0.7560     2.9960    -0.1520 hc         1 P4S       0.041200
     48 H20         -0.1070     2.1140     1.2140 hc         1 P4S       0.041200
     49 H21          0.8630     1.9190    -1.6680 hc         1 P4S       0.044700
     50 H22          1.6730     2.7070    -0.3390 hc         1 P4S       0.044700
     51 H23          1.8380     0.5420     0.8640 hc         1 P4S       0.043700
     52 H24          3.9720     0.2410    -2.8620 hc         1 P4S       0.038700
     53 H25          2.2580    -0.1520    -2.8370 hc         1 P4S       0.038700
     54 H26          2.7820     1.5160    -2.6890 hc         1 P4S       0.038700
     55 H27         -1.2830     0.7780     2.8330 hc         1 P4S       0.059700
     56 H28         -2.6180    -0.3510     2.7450 hc         1 P4S       0.059700
     57 H29         -0.2140    -1.4140     2.1290 h1         1 P4S       0.101700
     58 H30          0.5520    -0.6120    -1.6250 hc         1 P4S       0.067700
     59 H31          0.7130    -2.7830    -0.5880 hc         1 P4S       0.046700
     60 H32          1.4260    -2.1260     0.8620 hc         1 P4S       0.046700
     61 O2          -7.4890    -0.5160    -0.6890 o          1 P4S      -0.568500
@<TRIPOS>BOND
     1     1     2 1   
     2     1     6 1   
     3     1    21 1   
     4     1    22 1   
     5     2     3 1   
     6     2    29 1   
     7     2    30 1   
     8     3     4 1   
     9     3    31 1   
    10     3    32 1   
    11     4     5 1   
    12     4    10 1   
    13     4    33 1   
    14     5     6 1   
    15     5    34 1   
    16     5    35 1   
    17     6     7 1   
    18     6     9 1   
    19     7    28 1   
    20     7    36 1   
    21     7    37 1   
    22     8    11 1   
    23     8    12 1   
    24     9    38 1   
    25    10    39 1   
    26    11    13 1   
    27    11    61 2   
    28    12    15 2   
    29    12    40 1   
    30    13    14 2   
    31    13    41 1   
    32    14    15 1   
    33    14    42 1   
    34    15    16 1   
    35    16    17 1   
    36    16    23 1   
    37    16    43 1   
    38    17    18 1   
    39    17    19 1   
    40    17    26 1   
    41    18    44 1   
    42    18    45 1   
    43    18    46 1   
    44    19    20 1   
    45    19    47 1   
    46    19    48 1   
    47    20    21 1   
    48    20    49 1   
    49    20    50 1   
    50    21    27 1   
    51    21    51 1   
    52    22    52 1   
    53    22    53 1   
    54    22    54 1   
    55    23    24 1   
    56    23    55 1   
    57    23    56 1   
    58    24    25 1   
    59    24    26 1   
    60    24    57 1   
    61    25    26 1   
    62    26    27 1   
    63    27    28 1   
    64    27    58 1   
    65    28    59 1   
    66    28    60 1   
@<TRIPOS>SUBSTRUCTURE
     1 P4S         1 TEMP              0 ****  ****    0 ROOT
