@<TRIPOS>MOLECULE
P4T
   28    29     1     0     0
SMALL
No Charge or Current Charge


@<TRIPOS>ATOM
      1 N7          41.6820    69.7140    64.5110 nc         1 P4T      -0.744000
      2 C8          40.4620    70.0980    64.7940 cd         1 P4T       0.712300
      3 N9          39.5700    69.2030    65.3000 nu         1 P4T      -0.917900
      4 C5          42.3950    70.7450    63.9530 cc         1 P4T       0.406300
      5 C4          41.6950    71.9300    63.7880 cd         1 P4T      -0.368600
      6 C3          42.1740    73.2260    63.2340 c          1 P4T       0.619700
      7 C6          43.8230    70.4220    63.6070 c3         1 P4T      -0.134400
      8 C10         39.6670    67.9250    65.8600 ca         1 P4T       0.300000
      9 C16         38.5050    67.1340    65.9180 ca         1 P4T      -0.147500
     10 C15         38.5390    65.8470    66.4830 ca         1 P4T      -0.083000
     11 C14         39.7400    65.3430    67.0060 ca         1 P4T      -0.134000
     12 C13         40.9030    66.1290    66.9690 ca         1 P4T      -0.083000
     13 C12         40.8650    67.4150    66.4010 ca         1 P4T      -0.147500
     14 S4          40.0350    71.7400    64.3520 ss         1 P4T      -0.012400
     15 C2          43.6060    73.4300    62.7430 c3         1 P4T      -0.184100
     16 O8          41.4010    74.1720    63.1660 o          1 P4T      -0.544100
     17 H9          38.6190    69.5470    65.2080 hn         1 P4T       0.505000
     18 H6C1        44.0100    70.5410    62.5350 hc         1 P4T       0.056367
     19 H6C2        44.5210    71.0500    64.1700 hc         1 P4T       0.056367
     20 H6C3        44.0670    69.3820    63.8550 hc         1 P4T       0.056367
     21 H2C1        43.8330    72.6960    61.9650 hc         1 P4T       0.061700
     22 H2C2        43.7760    74.4490    62.3760 hc         1 P4T       0.061700
     23 H2C3        44.3060    73.1880    63.5480 hc         1 P4T       0.061700
     24 H16         37.5690    67.5130    65.5160 ha         1 P4T       0.130500
     25 H12         41.7700    68.0130    66.4030 ha         1 P4T       0.130500
     26 H15         37.6350    65.2420    66.5160 ha         1 P4T       0.114000
     27 H14         39.7690    64.3480    67.4460 ha         1 P4T       0.116000
     28 H13         41.8330    65.7450    67.3830 ha         1 P4T       0.114000
@<TRIPOS>BOND
     1     1     2 2   
     2     1     4 1   
     3     2     3 1   
     4     2    14 1   
     5     3     8 1   
     6     3    17 1   
     7     4     5 2   
     8     4     7 1   
     9     5     6 1   
    10     5    14 1   
    11     6    15 1   
    12     6    16 2   
    13     7    18 1   
    14     7    19 1   
    15     7    20 1   
    16     8     9 ar  
    17     8    13 ar  
    18     9    10 ar  
    19     9    24 1   
    20    10    11 ar  
    21    10    26 1   
    22    11    12 ar  
    23    11    27 1   
    24    12    13 ar  
    25    12    28 1   
    26    13    25 1   
    27    15    21 1   
    28    15    22 1   
    29    15    23 1   
@<TRIPOS>SUBSTRUCTURE
     1 P4T         1 TEMP              0 ****  ****    0 ROOT
