@<TRIPOS>MOLECULE
P4T
   28    29     1     0     0
SMALL
abcg2


@<TRIPOS>ATOM
      1 N7          41.7950    69.7140    64.6500 nc         1 P4T      -0.744000
      2 C8          40.5180    69.9900    64.7080 cd         1 P4T       0.712300
      3 N9          39.5640    69.1830    65.2080 nu         1 P4T      -0.917900
      4 C5          42.5020    70.7250    64.0860 cc         1 P4T       0.406300
      5 C4          41.7570    71.8150    63.6990 cd         1 P4T      -0.368600
      6 C3          42.0720    73.0870    63.0800 c          1 P4T       0.619700
      7 C6          43.9780    70.5470    63.9500 c3         1 P4T      -0.134400
      8 C10         39.6770    67.9140    65.7820 ca         1 P4T       0.300000
      9 C16         38.4810    67.2950    66.1600 ca         1 P4T      -0.147500
     10 C15         38.4920    66.0420    66.7460 ca         1 P4T      -0.083000
     11 C14         39.6930    65.3790    66.9690 ca         1 P4T      -0.134000
     12 C13         40.8780    65.9930    66.5920 ca         1 P4T      -0.083000
     13 C12         40.8850    67.2510    66.0020 ca         1 P4T      -0.147500
     14 S4          40.0770    71.5380    64.0680 ss         1 P4T      -0.012400
     15 C2          43.4980    73.4020    62.7280 c3         1 P4T      -0.184100
     16 O8          41.1670    73.8750    62.8500 o          1 P4T      -0.544100
     17 H9          38.6200    69.5350    65.1610 hn         1 P4T       0.505000
     18 H6C1        44.3040    70.6390    62.9140 hc         1 P4T       0.056367
     19 H6C2        44.5270    71.2870    64.5320 hc         1 P4T       0.056367
     20 H6C3        44.2590    69.5600    64.3090 hc         1 P4T       0.056367
     21 H2C1        43.8510    72.7360    61.9380 hc         1 P4T       0.061700
     22 H2C2        43.5750    74.4270    62.3730 hc         1 P4T       0.061700
     23 H2C3        44.1640    73.2720    63.5800 hc         1 P4T       0.061700
     24 H16         37.5370    67.7990    65.9910 ha         1 P4T       0.130500
     25 H12         41.8200    67.7070    65.7190 ha         1 P4T       0.130500
     26 H15         37.5530    65.5830    67.0270 ha         1 P4T       0.114000
     27 H14         39.7030    64.4000    67.4290 ha         1 P4T       0.116000
     28 H13         41.8230    65.4920    66.7570 ha         1 P4T       0.114000
@<TRIPOS>BOND
     1     1     2 2   
     2     1     4 1   
     3     2     3 1   
     4     2    14 1   
     5     3     8 1   
     6     3    17 1   
     7     4     5 2   
     8     4     7 1   
     9     5     6 1   
    10     5    14 1   
    11     6    15 1   
    12     6    16 2   
    13     7    18 1   
    14     7    19 1   
    15     7    20 1   
    16     8     9 ar  
    17     8    13 ar  
    18     9    10 ar  
    19     9    24 1   
    20    10    11 ar  
    21    10    26 1   
    22    11    12 ar  
    23    11    27 1   
    24    12    13 ar  
    25    12    28 1   
    26    13    25 1   
    27    15    21 1   
    28    15    22 1   
    29    15    23 1   
@<TRIPOS>SUBSTRUCTURE
     1 P4T         1 TEMP              0 ****  ****    0 ROOT
