@<TRIPOS>MOLECULE
P4W
   28    29     1     0     0
SMALL
No Charge or Current Charge


@<TRIPOS>ATOM
      1 C10         15.4280   -25.4910   -25.2150 ca         1 P4W       0.077000
      2 N           12.7380   -26.8240   -26.6640 n3         1 P4W      -0.723500
      3 C           11.9120   -26.0130   -25.7440 c3         1 P4W       0.172100
      4 O           14.8530   -26.9120   -28.0580 o          1 P4W      -0.542000
      5 C1          11.9360   -27.7500   -27.4890 c3         1 P4W       0.172100
      6 C2          14.7080   -24.9280   -26.3060 ca         1 P4W      -0.262500
      7 C3          14.6270   -23.5230   -26.4280 ca         1 P4W       0.016000
      8 C4          15.2540   -22.6860   -25.4920 ca         1 P4W      -0.145000
      9 C5          15.9700   -23.2370   -24.4210 ca         1 P4W      -0.023000
     10 C6          16.0550   -24.6330   -24.2820 ca         1 P4W      -0.125000
     11 C7          16.7680   -25.1880   -23.2020 ca         1 P4W       0.368900
     12 C8          16.2830   -27.3410   -23.8800 ca         1 P4W       0.341900
     13 C9          15.5540   -26.8790   -24.9870 ca         1 P4W      -0.150000
     14 N1          16.8870   -26.5180   -22.9960 nb         1 P4W      -0.663000
     15 O1          13.1260   -25.0680   -28.4820 o          1 P4W      -0.542000
     16 S           13.8790   -25.9320   -27.5650 sy         1 P4W       1.136600
     17 H1          11.2270   -26.6540   -25.1730 h1         1 P4W       0.053033
     18 H2          12.5300   -25.4720   -25.0160 h1         1 P4W       0.053033
     19 H3          11.3080   -25.2800   -26.2960 h1         1 P4W       0.053033
     20 H4          11.2880   -28.3710   -26.8560 h1         1 P4W       0.053033
     21 H5          11.2970   -27.2010   -28.1940 h1         1 P4W       0.053033
     22 H6          12.5820   -28.4260   -28.0650 h1         1 P4W       0.053033
     23 H7          14.0810   -23.0660   -27.2520 ha         1 P4W       0.144000
     24 H8          15.1850   -21.6060   -25.6000 ha         1 P4W       0.125000
     25 H9          16.4530   -22.5800   -23.7010 ha         1 P4W       0.120000
     26 H10         17.2610   -24.5460   -22.4720 h4         1 P4W       0.019100
     27 H11         16.3860   -28.4090   -23.6940 h4         1 P4W       0.023100
     28 H12         15.0980   -27.6200   -25.6330 ha         1 P4W       0.142000
@<TRIPOS>BOND
     1     1     6 ar  
     2     1    10 ar  
     3     1    13 ar  
     4     2     3 1   
     5     2     5 1   
     6     2    16 1   
     7     3    17 1   
     8     3    18 1   
     9     3    19 1   
    10     4    16 2   
    11     5    20 1   
    12     5    21 1   
    13     5    22 1   
    14     6     7 ar  
    15     6    16 1   
    16     7     8 ar  
    17     7    23 1   
    18     8     9 ar  
    19     8    24 1   
    20     9    10 ar  
    21     9    25 1   
    22    10    11 ar  
    23    11    14 ar  
    24    11    26 1   
    25    12    13 ar  
    26    12    14 ar  
    27    12    27 1   
    28    13    28 1   
    29    15    16 2   
@<TRIPOS>SUBSTRUCTURE
     1 P4W         1 TEMP              0 ****  ****    0 ROOT
