@<TRIPOS>MOLECULE
P4W
   28    29     1     0     0
SMALL
abcg2


@<TRIPOS>ATOM
      1 C10         15.4040   -25.5360   -25.2300 ca         1 P4W       0.077000
      2 N           12.6860   -26.6270   -26.6240 n3         1 P4W      -0.723500
      3 C           11.6570   -25.7880   -26.0210 c3         1 P4W       0.172100
      4 O           14.7360   -26.8020   -28.0640 o          1 P4W      -0.542000
      5 C1          12.1650   -27.8510   -27.2270 c3         1 P4W       0.172100
      6 C2          14.6560   -24.8850   -26.2490 ca         1 P4W      -0.262500
      7 C3          14.5890   -23.5180   -26.3160 ca         1 P4W       0.016000
      8 C4          15.2580   -22.7160   -25.3720 ca         1 P4W      -0.145000
      9 C5          15.9900   -23.3040   -24.3810 ca         1 P4W      -0.023000
     10 C6          16.0750   -24.7100   -24.2960 ca         1 P4W      -0.125000
     11 C7          16.8330   -25.3290   -23.2750 ca         1 P4W       0.368900
     12 C8          16.3050   -27.4030   -24.0220 ca         1 P4W       0.341900
     13 C9          15.5420   -26.9310   -25.0540 ca         1 P4W      -0.150000
     14 N1          16.9530   -26.6190   -23.1340 nb         1 P4W      -0.663000
     15 O1          13.2230   -24.8560   -28.4390 o          1 P4W      -0.542000
     16 S           13.8230   -25.8100   -27.5140 sy         1 P4W       1.136600
     17 H1          11.1330   -26.3880   -25.2790 h1         1 P4W       0.053033
     18 H2          12.0980   -24.9410   -25.4990 h1         1 P4W       0.053033
     19 H3          10.9290   -25.4190   -26.7480 h1         1 P4W       0.053033
     20 H4          11.6270   -28.3920   -26.4510 h1         1 P4W       0.053033
     21 H5          11.4730   -27.6560   -28.0520 h1         1 P4W       0.053033
     22 H6          12.9730   -28.4870   -27.5760 h1         1 P4W       0.053033
     23 H7          14.0130   -23.0370   -27.0940 ha         1 P4W       0.144000
     24 H8          15.1840   -21.6400   -25.4440 ha         1 P4W       0.125000
     25 H9          16.5130   -22.7010   -23.6490 ha         1 P4W       0.120000
     26 H10         17.3530   -24.6980   -22.5590 h4         1 P4W       0.019100
     27 H11         16.4170   -28.4710   -23.8820 h4         1 P4W       0.023100
     28 H12         15.0650   -27.6400   -25.7120 ha         1 P4W       0.142000
@<TRIPOS>BOND
     1     1     6 ar  
     2     1    10 ar  
     3     1    13 ar  
     4     2     3 1   
     5     2     5 1   
     6     2    16 1   
     7     3    17 1   
     8     3    18 1   
     9     3    19 1   
    10     4    16 2   
    11     5    20 1   
    12     5    21 1   
    13     5    22 1   
    14     6     7 ar  
    15     6    16 1   
    16     7     8 ar  
    17     7    23 1   
    18     8     9 ar  
    19     8    24 1   
    20     9    10 ar  
    21     9    25 1   
    22    10    11 ar  
    23    11    14 ar  
    24    11    26 1   
    25    12    13 ar  
    26    12    14 ar  
    27    12    27 1   
    28    13    28 1   
    29    15    16 2   
@<TRIPOS>SUBSTRUCTURE
     1 P4W         1 TEMP              0 ****  ****    0 ROOT
