@<TRIPOS>MOLECULE
P4X
   45    47     1     0     0
SMALL
abcg2


@<TRIPOS>ATOM
      1 C10         39.9830    18.1350     7.6650 ce         1 P4X      -0.004400
      2 N12         40.2940    16.0950     6.3260 n          1 P4X      -0.328000
      3 C13         39.4000    15.1410     5.6860 c3         1 P4X       0.092300
      4 C17         39.7410    20.6330     8.2950 cc         1 P4X       0.263900
      5 C21         37.9810    19.7090     7.3730 cd         1 P4X      -0.165000
      6 C22         40.6700    17.8790    12.6010 c3         1 P4X       0.222600
      7 C01         43.9420    16.3510     7.0430 c3         1 P4X      -0.076100
      8 C02         42.4830    16.7530     7.1810 c3         1 P4X      -0.089400
      9 C04         42.0270    17.0310     8.5930 ca         1 P4X      -0.067300
     10 C05         42.7610    16.6190     9.7020 ca         1 P4X      -0.099000
     11 C06         42.3350    16.9110    10.9860 ca         1 P4X      -0.100000
     12 C07         41.1540    17.6160    11.1990 ca         1 P4X      -0.091300
     13 C08         40.4160    18.0210    10.0990 ca         1 P4X      -0.065000
     14 C09         40.8270    17.7270     8.7960 ca         1 P4X      -0.044800
     15 C11         39.7870    17.3690     6.5750 c2         1 P4X      -0.072400
     16 C14         41.5560    15.6810     6.6360 c          1 P4X       0.568000
     17 O15         41.9000    14.5230     6.4760 o          1 P4X      -0.544000
     18 C16         39.2730    19.4140     7.7650 cc         1 P4X      -0.171800
     19 N18         38.8240    21.5780     8.2230 nd         1 P4X      -0.522800
     20 N19         37.7660    21.0020     7.6630 na         1 P4X       0.133800
     21 O24         40.0460    19.1380    12.6520 oh         1 P4X      -0.656000
     22 C25         39.7120    16.7710    13.0230 c3         1 P4X       0.117600
     23 O26         39.2900    17.0450    14.3410 oh         1 P4X      -0.674000
     24 H1          38.5610    15.6800     5.2540 h1         1 P4X       0.044700
     25 H2          39.9100    14.5990     4.8930 h1         1 P4X       0.044700
     26 H3          39.0070    14.4230     6.4070 h1         1 P4X       0.044700
     27 H5          36.1910    22.1660     8.3860 h1         1 P4X       0.056367
     28 H6          36.7430    22.5800     6.7520 h1         1 P4X       0.056367
     29 H7          35.8000    21.1070     7.0230 h1         1 P4X       0.056367
     30 H8          37.2160    19.0890     6.9320 h4         1 P4X       0.151000
     31 H9          41.5390    17.8470    13.2770 h1         1 P4X       0.048700
     32 H10         44.5840    17.1210     7.4710 hc         1 P4X       0.045367
     33 H11         44.1700    15.4070     7.5340 hc         1 P4X       0.045367
     34 H12         44.2070    16.2490     5.9910 hc         1 P4X       0.045367
     35 H13         42.3230    17.6660     6.5950 hc         1 P4X       0.078700
     36 H14         43.6910    16.0830     9.5700 ha         1 P4X       0.120000
     37 H15         42.9350    16.5950    11.8310 ha         1 P4X       0.114000
     38 H16         39.4910    18.5630    10.2450 ha         1 P4X       0.134000
     39 H17         39.1190    17.7240     5.7990 h4         1 P4X       0.185000
     40 H18         39.5530    19.1860    13.4800 ho         1 P4X       0.460000
     41 H19         38.8670    16.7450    12.3220 h1         1 P4X       0.035700
     42 H20         40.2280    15.8050    12.9500 h1         1 P4X       0.035700
     43 H21         38.5130    16.5130    14.5330 ho         1 P4X       0.451000
     44 H4          40.7120    20.8440     8.7190 h4         1 P4X       0.047100
     45 C20         36.5580    21.7610     7.4450 c3         1 P4X       0.073900
@<TRIPOS>BOND
     1     1    14 1   
     2     1    15 2   
     3     1    18 1   
     4     2     3 1   
     5     2    15 1   
     6     2    16 1   
     7     3    24 1   
     8     3    25 1   
     9     3    26 1   
    10     4    18 1   
    11     4    19 2   
    12     4    44 1   
    13     5    18 2   
    14     5    20 1   
    15     5    30 1   
    16     6    12 1   
    17     6    21 1   
    18     6    22 1   
    19     6    31 1   
    20     7     8 1   
    21     7    32 1   
    22     7    33 1   
    23     7    34 1   
    24     8     9 1   
    25     8    16 1   
    26     8    35 1   
    27     9    10 ar  
    28     9    14 ar  
    29    10    11 ar  
    30    10    36 1   
    31    11    12 ar  
    32    11    37 1   
    33    12    13 ar  
    34    13    14 ar  
    35    13    38 1   
    36    15    39 1   
    37    16    17 2   
    38    19    20 1   
    39    20    45 1   
    40    21    40 1   
    41    22    23 1   
    42    22    41 1   
    43    22    42 1   
    44    23    43 1   
    45    27    45 1   
    46    28    45 1   
    47    29    45 1   
@<TRIPOS>SUBSTRUCTURE
     1 P4X         1 TEMP              0 ****  ****    0 ROOT
