@<TRIPOS>MOLECULE
P4X
   45    47     1     0     0
SMALL
No Charge or Current Charge


@<TRIPOS>ATOM
      1 C10         40.0850    18.1250     7.5560 ce         1 P4X      -0.004400
      2 N12         40.4040    16.1480     6.0330 n          1 P4X      -0.328000
      3 C13         39.5490    15.2340     5.2420 c3         1 P4X       0.092300
      4 C17         39.7620    20.5880     8.1440 cc         1 P4X       0.263900
      5 C21         37.9250    19.4760     7.6610 cd         1 P4X      -0.165000
      6 C22         40.6980    17.9140    12.5920 c3         1 P4X       0.222600
      7 C01         44.0880    16.2100     7.0500 c3         1 P4X      -0.076100
      8 C02         42.6010    16.6410     7.1640 c3         1 P4X      -0.089400
      9 C04         42.0900    16.9100     8.5800 ca         1 P4X      -0.067300
     10 C05         42.8010    16.4800     9.7240 ca         1 P4X      -0.099000
     11 C06         42.3500    16.8020    11.0120 ca         1 P4X      -0.100000
     12 C07         41.1850    17.5650    11.1850 ca         1 P4X      -0.091300
     13 C08         40.4710    17.9900    10.0480 ca         1 P4X      -0.065000
     14 C09         40.8930    17.6530     8.7410 ca         1 P4X      -0.044800
     15 C11         39.9090    17.4280     6.4020 c2         1 P4X      -0.072400
     16 C14         41.6330    15.6430     6.5140 c          1 P4X       0.568000
     17 O15         41.8810    14.4420     6.4750 o          1 P4X      -0.544000
     18 C16         39.2770    19.3230     7.7610 cc         1 P4X      -0.171800
     19 N18         38.8350    21.5140     8.2830 nd         1 P4X      -0.522800
     20 N19         37.6780    20.8150     7.9790 na         1 P4X       0.133800
     21 O24         40.6010    19.3340    12.7510 oh         1 P4X      -0.656000
     22 C25         39.3170    17.2830    12.9240 c3         1 P4X       0.117600
     23 O26         38.8710    17.7120    14.2260 oh         1 P4X      -0.674000
     24 H1          38.6750    15.7700     4.8500 h1         1 P4X       0.044700
     25 H2          40.1210    14.8270     4.3980 h1         1 P4X       0.044700
     26 H3          39.2030    14.4090     5.8770 h1         1 P4X       0.044700
     27 H5          36.1680    21.8420     9.0270 h1         1 P4X       0.056367
     28 H6          36.3640    22.3210     7.3130 h1         1 P4X       0.056367
     29 H7          35.5850    20.7650     7.7240 h1         1 P4X       0.056367
     30 H8          37.1430    18.7710     7.4050 h4         1 P4X       0.151000
     31 H9          41.4210    17.5170    13.3180 h1         1 P4X       0.048700
     32 H10         44.7430    16.9470     7.5300 hc         1 P4X       0.045367
     33 H11         44.2630    15.2320     7.5140 hc         1 P4X       0.045367
     34 H12         44.3810    16.1370     5.9950 hc         1 P4X       0.045367
     35 H13         42.5000    17.5930     6.6300 hc         1 P4X       0.078700
     36 H14         43.7150    15.9000     9.6330 ha         1 P4X       0.120000
     37 H15         42.9160    16.4610    11.8760 ha         1 P4X       0.114000
     38 H16         39.5620    18.5680    10.1940 ha         1 P4X       0.134000
     39 H17         39.2320    17.8290     5.6470 h4         1 P4X       0.185000
     40 H18         39.9960    19.4430    13.5200 ho         1 P4X       0.460000
     41 H19         38.5870    17.5720    12.1570 h1         1 P4X       0.035700
     42 H20         39.4140    16.1890    12.8930 h1         1 P4X       0.035700
     43 H21         38.0310    17.2350    14.4170 ho         1 P4X       0.451000
     44 H4          40.7940    20.8570     8.3290 h4         1 P4X       0.047100
     45 C20         36.3670    21.4770     8.0130 c3         1 P4X       0.073900
@<TRIPOS>BOND
     1     1    14 1   
     2     1    15 2   
     3     1    18 1   
     4     2     3 1   
     5     2    15 1   
     6     2    16 1   
     7     3    24 1   
     8     3    25 1   
     9     3    26 1   
    10     4    18 1   
    11     4    19 2   
    12     4    44 1   
    13     5    18 2   
    14     5    20 1   
    15     5    30 1   
    16     6    12 1   
    17     6    21 1   
    18     6    22 1   
    19     6    31 1   
    20     7     8 1   
    21     7    32 1   
    22     7    33 1   
    23     7    34 1   
    24     8     9 1   
    25     8    16 1   
    26     8    35 1   
    27     9    10 ar  
    28     9    14 ar  
    29    10    11 ar  
    30    10    36 1   
    31    11    12 ar  
    32    11    37 1   
    33    12    13 ar  
    34    13    14 ar  
    35    13    38 1   
    36    15    39 1   
    37    16    17 2   
    38    19    20 1   
    39    20    45 1   
    40    21    40 1   
    41    22    23 1   
    42    22    41 1   
    43    22    42 1   
    44    23    43 1   
    45    27    45 1   
    46    28    45 1   
    47    29    45 1   
@<TRIPOS>SUBSTRUCTURE
     1 P4X         1 TEMP              0 ****  ****    0 ROOT
