@<TRIPOS>MOLECULE
P4Y
   41    44     1     0     0
SMALL
No Charge or Current Charge


@<TRIPOS>ATOM
      1 C01          3.5150    -2.5300    -0.6300 ca         1 P4Y      -0.160000
      2 C02          4.3050    -1.7880    -1.5400 ca         1 P4Y      -0.096000
      3 C03          4.1030    -0.3990    -1.6930 ca         1 P4Y      -0.142000
      4 C04          3.1030     0.2060    -0.9210 ca         1 P4Y      -0.043200
      5 C05          2.3370    -0.5130    -0.0410 ca         1 P4Y      -0.089800
      6 C06          2.5130    -1.8930     0.1350 ca         1 P4Y      -0.039000
      7 N07          2.7150     1.5310    -0.8900 na         1 P4Y      -0.223700
      8 C08          1.6900     1.6920     0.0570 cc         1 P4Y      -0.002300
      9 C09          1.4120     0.4240     0.5700 cd         1 P4Y      -0.092400
     10 C10          0.9550     2.9180     0.3670 ca         1 P4Y      -0.019800
     11 C11          0.2980     0.0300     1.5200 c3         1 P4Y      -0.027500
     12 C12         -0.6360    -1.0420     0.9690 ca         1 P4Y       0.069300
     13 C13          0.5040     3.7480    -0.6780 ca         1 P4Y      -0.089000
     14 C14         -0.1850     4.9400    -0.3950 ca         1 P4Y      -0.111000
     15 C15         -0.4190     5.3170     0.9380 ca         1 P4Y      -0.109000
     16 C16          0.0420     4.5050     1.9870 ca         1 P4Y      -0.111000
     17 C17          0.7310     3.3130     1.7020 ca         1 P4Y      -0.089000
     18 N18         -1.2390    -0.7750    -0.2120 nb         1 P4Y      -0.108000
     19 C19         -2.0720    -1.7150    -0.7260 ca         1 P4Y      -0.071500
     20 C20         -2.2900    -2.9290    -0.0240 ca         1 P4Y       0.112100
     21 C21         -1.6100    -3.1040     1.2130 ca         1 P4Y       0.253300
     22 N22         -0.7880    -2.1630     1.7070 nb         1 P4Y      -0.279000
     23 C23         -2.7520    -1.4220    -2.0550 c          1 P4Y       0.623500
     24 O24         -3.1320    -3.8880    -0.5340 oh         1 P4Y      -0.602100
     25 O25         -1.7510    -4.2320     1.9690 oh         1 P4Y      -0.640300
     26 O26         -3.4980    -2.2760    -2.5200 o          1 P4Y      -0.672500
     27 O27         -2.5370    -0.3530    -2.6090 o          1 P4Y      -0.672500
     28 H01          3.6790    -3.5990    -0.5180 ha         1 P4Y       0.101000
     29 H02          5.0730    -2.2900    -2.1240 ha         1 P4Y       0.096000
     30 H03          4.7040     0.1810    -2.3890 ha         1 P4Y       0.102000
     31 H06          1.9050    -2.4560     0.8380 ha         1 P4Y       0.132000
     32 H11          0.7450    -0.3030     2.4650 hc         1 P4Y       0.054700
     33 H11A        -0.3140     0.8990     1.7810 hc         1 P4Y       0.054700
     34 H13          0.6790     3.4630    -1.7130 ha         1 P4Y       0.115500
     35 H14         -0.5370     5.5710    -1.2080 ha         1 P4Y       0.106500
     36 H15         -0.9520     6.2400     1.1580 ha         1 P4Y       0.104000
     37 H16         -0.1290     4.8000     3.0190 ha         1 P4Y       0.106500
     38 H17          1.1010     2.7000     2.5210 ha         1 P4Y       0.115500
     39 HN07         3.1130     2.2720    -1.4550 hn         1 P4Y       0.341000
     40 H141        -3.4650    -3.5070    -1.3980 ho         1 P4Y       0.550000
     41 H151        -1.1920    -4.1090     2.7650 ho         1 P4Y       0.455000
@<TRIPOS>BOND
     1     1     2 ar  
     2     1     6 ar  
     3     1    28 1   
     4     2     3 ar  
     5     2    29 1   
     6     3     4 ar  
     7     3    30 1   
     8     4     5 ar  
     9     4     7 1   
    10     5     6 ar  
    11     5     9 1   
    12     6    31 1   
    13     7     8 1   
    14     7    39 1   
    15     8     9 2   
    16     8    10 1   
    17     9    11 1   
    18    10    13 ar  
    19    10    17 ar  
    20    11    12 1   
    21    11    32 1   
    22    11    33 1   
    23    12    18 ar  
    24    12    22 ar  
    25    13    14 ar  
    26    13    34 1   
    27    14    15 ar  
    28    14    35 1   
    29    15    16 ar  
    30    15    36 1   
    31    16    17 ar  
    32    16    37 1   
    33    17    38 1   
    34    18    19 ar  
    35    19    20 ar  
    36    19    23 1   
    37    20    21 ar  
    38    20    24 1   
    39    21    22 ar  
    40    21    25 1   
    41    23    26 1   
    42    23    27 1   
    43    24    40 1   
    44    25    41 1   
@<TRIPOS>SUBSTRUCTURE
     1 P4Y         1 TEMP              0 ****  ****    0 ROOT
