@<TRIPOS>MOLECULE
P4Y
   41    44     1     0     0
SMALL
abcg2


@<TRIPOS>ATOM
      1 C01          3.8000    -2.5020    -0.3300 ca         1 P4Y      -0.160000
      2 C02          4.5310    -1.7450    -1.2620 ca         1 P4Y      -0.096000
      3 C03          4.2280    -0.4190    -1.5040 ca         1 P4Y      -0.142000
      4 C04          3.1690     0.1380    -0.7880 ca         1 P4Y      -0.043200
      5 C05          2.4280    -0.6010     0.1600 ca         1 P4Y      -0.089800
      6 C06          2.7540    -1.9450     0.3790 ca         1 P4Y      -0.039000
      7 N07          2.6500     1.3970    -0.8140 na         1 P4Y      -0.223700
      8 C08          1.6230     1.4970     0.0930 cc         1 P4Y      -0.002300
      9 C09          1.4460     0.2840     0.7120 cd         1 P4Y      -0.092400
     10 C10          0.8980     2.7610     0.2420 ca         1 P4Y      -0.019800
     11 C11          0.3710    -0.1050     1.6780 c3         1 P4Y      -0.027500
     12 C12         -0.6240    -1.0370     1.0350 ca         1 P4Y       0.069300
     13 C13          0.5040     3.4830    -0.8860 ca         1 P4Y      -0.089000
     14 C14         -0.1700     4.6880    -0.7540 ca         1 P4Y      -0.111000
     15 C15         -0.4660     5.1890     0.5080 ca         1 P4Y      -0.109000
     16 C16         -0.0740     4.4800     1.6360 ca         1 P4Y      -0.111000
     17 C17          0.6070     3.2790     1.5050 ca         1 P4Y      -0.089000
     18 N18         -1.5270    -0.5140     0.2380 nb         1 P4Y      -0.108000
     19 C19         -2.3820    -1.3460    -0.3670 ca         1 P4Y      -0.071500
     20 C20         -2.3320    -2.7220    -0.1770 ca         1 P4Y       0.112100
     21 C21         -1.3290    -3.1690     0.7050 ca         1 P4Y       0.253300
     22 N22         -0.5020    -2.3440     1.2950 nb         1 P4Y      -0.279000
     23 C23         -3.4430    -0.7700    -1.2850 c          1 P4Y       0.623500
     24 O24         -3.1600    -3.5770    -0.7640 oh         1 P4Y      -0.602100
     25 O25         -1.2370    -4.4760     0.9370 oh         1 P4Y      -0.640300
     26 O26         -4.2040    -1.6400    -1.8190 o          1 P4Y      -0.672500
     27 O27         -3.5040     0.4430    -1.4500 o          1 P4Y      -0.672500
     28 H01          4.0640    -3.5390    -0.1690 ha         1 P4Y       0.101000
     29 H02          5.3460    -2.2100    -1.8000 ha         1 P4Y       0.096000
     30 H03          4.7890     0.1650    -2.2220 ha         1 P4Y       0.102000
     31 H06          2.1910    -2.5390     1.0870 ha         1 P4Y       0.132000
     32 H11          0.8020    -0.5910     2.5560 hc         1 P4Y       0.054700
     33 H11A        -0.1600     0.7810     2.0260 hc         1 P4Y       0.054700
     34 H13          0.7080     3.0950    -1.8760 ha         1 P4Y       0.115500
     35 H14         -0.4700     5.2320    -1.6400 ha         1 P4Y       0.106500
     36 H15         -0.9940     6.1280     0.6110 ha         1 P4Y       0.104000
     37 H16         -0.2860     4.8690     2.6230 ha         1 P4Y       0.106500
     38 H17          0.9370     2.7530     2.3930 ha         1 P4Y       0.115500
     39 HN07         3.0180     2.1650    -1.3510 hn         1 P4Y       0.341000
     40 H141        -3.7590    -2.9410    -1.3180 ho         1 P4Y       0.550000
     41 H151        -0.5170    -4.6290     1.5650 ho         1 P4Y       0.455000
@<TRIPOS>BOND
     1     1     2 ar  
     2     1     6 ar  
     3     1    28 1   
     4     2     3 ar  
     5     2    29 1   
     6     3     4 ar  
     7     3    30 1   
     8     4     5 ar  
     9     4     7 1   
    10     5     6 ar  
    11     5     9 1   
    12     6    31 1   
    13     7     8 1   
    14     7    39 1   
    15     8     9 2   
    16     8    10 1   
    17     9    11 1   
    18    10    13 ar  
    19    10    17 ar  
    20    11    12 1   
    21    11    32 1   
    22    11    33 1   
    23    12    18 ar  
    24    12    22 ar  
    25    13    14 ar  
    26    13    34 1   
    27    14    15 ar  
    28    14    35 1   
    29    15    16 ar  
    30    15    36 1   
    31    16    17 ar  
    32    16    37 1   
    33    17    38 1   
    34    18    19 ar  
    35    19    20 ar  
    36    19    23 1   
    37    20    21 ar  
    38    20    24 1   
    39    21    22 ar  
    40    21    25 1   
    41    23    26 1   
    42    23    27 1   
    43    24    40 1   
    44    25    41 1   
@<TRIPOS>SUBSTRUCTURE
     1 P4Y         1 TEMP              0 ****  ****    0 ROOT
