@<TRIPOS>MOLECULE
P4Z
   52    55     1     0     0
SMALL
No Charge or Current Charge


@<TRIPOS>ATOM
      1 C4           9.7190    -0.3170    -7.6090 ca         1 P4Z      -0.095500
      2 C5           9.9560    -1.3210    -8.5790 cp         1 P4Z      -0.025000
      3 C6           9.4700    -1.0980    -9.8890 ca         1 P4Z      -0.095500
      4 C7          10.6810    -2.5850    -8.2380 cp         1 P4Z      -0.068000
      5 C8          11.8790    -2.5890    -7.4720 ca         1 P4Z       0.191000
      6 C10         12.0160    -5.0190    -7.6210 ca         1 P4Z      -0.075000
      7 C15          7.8070     2.3530    -9.5880 cp         1 P4Z       0.495500
      8 C17          7.8910     4.6910    -9.4490 ca         1 P4Z       0.260000
      9 C20          6.8840     7.2400    -9.9390 ca         1 P4Z       0.315900
     10 C21          6.1520     6.1180   -10.3650 ca         1 P4Z      -0.135000
     11 C22          6.6530     4.8140   -10.1160 ca         1 P4Z      -0.117000
     12 C24          6.5540     2.3920   -10.2360 ca         1 P4Z      -0.199000
     13 C28          4.4400     3.3680   -12.5760 c3         1 P4Z       0.142500
     14 C1           8.7800     0.0800   -10.2200 ca         1 P4Z      -0.075500
     15 C2           8.5340     1.0830    -9.2470 cp         1 P4Z      -0.152500
     16 C3           9.0290     0.8620    -7.9370 ca         1 P4Z      -0.075500
     17 C9          12.5380    -3.7980    -7.1670 ca         1 P4Z       0.064000
     18 C11         10.8370    -5.0360    -8.3840 ca         1 P4Z      -0.120000
     19 C12         10.1790    -3.8320    -8.6900 ca         1 P4Z      -0.074000
     20 Cl1         14.0270    -3.7980    -6.2200 cl         1 P4Z      -0.170000
     21 F14         12.4220    -1.4230    -7.0480 f          1 P4Z      -0.156000
     22 N16          8.4350     3.4790    -9.1940 nb         1 P4Z      -0.687000
     23 C18          8.5460     5.8920    -9.0590 ca         1 P4Z       0.365900
     24 N19          8.0640     7.1430    -9.2920 nb         1 P4Z      -0.644000
     25 C23          5.9740     3.6410   -10.5110 ca         1 P4Z       0.439000
     26 C25          5.8580     1.1790   -10.5410 cg         1 P4Z       0.353000
     27 N26          5.3030     0.1820   -10.7910 n1         1 P4Z      -0.490000
     28 N27          4.7300     3.7430   -11.1550 nu         1 P4Z      -0.938200
     29 C29          5.4830     4.0340   -13.5170 c3         1 P4Z      -0.097400
     30 C30          5.3570     3.6400   -15.0050 c3         1 P4Z      -0.094100
     31 C31          2.9590     3.7140   -12.9840 c          1 P4Z       0.601100
     32 O32          2.3420     4.6680   -12.5290 o          1 P4Z      -0.613100
     33 N33          2.3450     2.8750   -13.8520 nt         1 P4Z      -0.591000
     34 H1          10.0640    -0.4590    -6.5880 ha         1 P4Z       0.121000
     35 H2           9.6440    -1.8430   -10.6630 ha         1 P4Z       0.121000
     36 H3          12.5250    -5.9500    -7.3840 ha         1 P4Z       0.132000
     37 H4           6.5120     8.2470   -10.1240 h4         1 P4Z       0.025100
     38 H5           5.2150     6.2860   -10.8880 ha         1 P4Z       0.126000
     39 H6           4.5390     2.2810   -12.6920 h1         1 P4Z       0.084700
     40 H7           8.4440     0.2220   -11.2450 ha         1 P4Z       0.124000
     41 H8           8.8660     1.6110    -7.1650 ha         1 P4Z       0.124000
     42 H9          10.4320    -5.9820    -8.7370 ha         1 P4Z       0.124000
     43 H10          9.2620    -3.8650    -9.2750 ha         1 P4Z       0.126000
     44 H11          9.5020     5.8440    -8.5400 h4         1 P4Z       0.041100
     45 H12          4.1560     4.5150   -10.8060 hn         1 P4Z       0.519000
     46 H13          6.4920     3.7620   -13.1850 hc         1 P4Z       0.060700
     47 H14          5.4060     5.1250   -13.4300 hc         1 P4Z       0.060700
     48 H15          6.1790     4.0790   -15.5830 hc         1 P4Z       0.042033
     49 H16          5.4020     2.5500   -15.1250 hc         1 P4Z       0.042033
     50 H17          4.4160     4.0020   -15.4340 hc         1 P4Z       0.042033
     51 H18          1.3900     3.0590   -14.1210 hn         1 P4Z       0.324500
     52 H19          2.8360     2.0740   -14.2220 hn         1 P4Z       0.324500
@<TRIPOS>BOND
     1     1     2 ar  
     2     1    16 ar  
     3     1    34 1   
     4     2     3 ar  
     5     2     4 1   
     6     3    14 ar  
     7     3    35 1   
     8     4     5 ar  
     9     4    19 ar  
    10     5    17 ar  
    11     5    21 1   
    12     6    17 ar  
    13     6    18 ar  
    14     6    36 1   
    15     7    12 ar  
    16     7    15 1   
    17     7    22 ar  
    18     8    11 ar  
    19     8    22 ar  
    20     8    23 ar  
    21     9    10 ar  
    22     9    24 ar  
    23     9    37 1   
    24    10    11 ar  
    25    10    38 1   
    26    11    25 ar  
    27    12    25 ar  
    28    12    26 1   
    29    13    28 1   
    30    13    29 1   
    31    13    31 1   
    32    13    39 1   
    33    14    15 ar  
    34    14    40 1   
    35    15    16 ar  
    36    16    41 1   
    37    17    20 1   
    38    18    19 ar  
    39    18    42 1   
    40    19    43 1   
    41    23    24 ar  
    42    23    44 1   
    43    25    28 1   
    44    26    27 3   
    45    28    45 1   
    46    29    30 1   
    47    29    46 1   
    48    29    47 1   
    49    30    48 1   
    50    30    49 1   
    51    30    50 1   
    52    31    32 2   
    53    31    33 1   
    54    33    51 1   
    55    33    52 1   
@<TRIPOS>SUBSTRUCTURE
     1 P4Z         1 TEMP              0 ****  ****    0 ROOT
