@<TRIPOS>MOLECULE
P4Z
   52    55     1     0     0
SMALL
bcc


@<TRIPOS>ATOM
      1 C4           9.5080    -0.2360    -7.6910 ca         1 P4Z      -0.113500
      2 C5           9.9120    -1.0730    -8.7310 cp         1 P4Z      -0.025000
      3 C6           9.6590    -0.6770   -10.0430 ca         1 P4Z      -0.113500
      4 C7          10.5580    -2.3770    -8.4740 cp         1 P4Z      -0.068000
      5 C8          11.6460    -2.5020    -7.6210 ca         1 P4Z       0.155900
      6 C10         11.7840    -4.8650    -8.0190 ca         1 P4Z      -0.093000
      7 C15          7.9010     2.6260    -9.5250 cp         1 P4Z       0.560800
      8 C17          7.7630     4.8540    -9.0880 ca         1 P4Z       0.325300
      9 C20          6.7450     7.3690    -9.3230 ca         1 P4Z       0.381200
     10 C21          6.1740     6.3650   -10.0610 ca         1 P4Z      -0.218300
     11 C22          6.6810     5.0580    -9.9560 ca         1 P4Z      -0.182300
     12 C24          6.7740     2.6870   -10.4020 ca         1 P4Z      -0.264300
     13 C28          4.6110     3.2570   -12.5500 c3         1 P4Z       0.142500
     14 C1           9.0030     0.5130   -10.3110 ca         1 P4Z      -0.093500
     15 C2           8.5870     1.3390    -9.2710 cp         1 P4Z      -0.152500
     16 C3           8.8600     0.9570    -7.9590 ca         1 P4Z      -0.093500
     17 C9          12.2580    -3.7240    -7.3910 ca         1 P4Z      -0.027600
     18 C11         10.7010    -4.7620    -8.8780 ca         1 P4Z      -0.138000
     19 C12         10.1000    -3.5340    -9.1040 ca         1 P4Z      -0.092000
     20 CL1         13.6130    -3.7970    -6.3290 cl         1 P4Z      -0.078400
     21 F14         12.1430    -1.4220    -7.0160 f          1 P4Z      -0.120900
     22 N16          8.3710     3.6600    -8.8910 nb         1 P4Z      -0.687000
     23 C18          8.2650     5.9700    -8.3810 ca         1 P4Z       0.365900
     24 N19          7.7820     7.1790    -8.4890 nb         1 P4Z      -0.644000
     25 C23          6.1560     3.9180   -10.6780 ca         1 P4Z       0.300600
     26 C25          6.2410     1.4570   -10.8680 cg         1 P4Z       0.263800
     27 N26          5.8110     0.4390   -11.2020 n1         1 P4Z      -0.400800
     28 N27          5.1300     4.1160   -11.5050 nu         1 P4Z      -0.744600
     29 C29          5.6220     3.1110   -13.7020 c3         1 P4Z      -0.097400
     30 C30          5.2180     2.0930   -14.7570 c3         1 P4Z      -0.094100
     31 C31          3.3280     3.9300   -13.0410 c          1 P4Z       0.668100
     32 O32          3.2150     5.1470   -13.0160 o          1 P4Z      -0.613100
     33 N33          2.3920     3.1010   -13.5030 nt         1 P4Z      -0.658000
     34 H1           9.6710    -0.5250    -6.6610 ha         1 P4Z       0.139000
     35 H2           9.9900    -1.2970   -10.8670 ha         1 P4Z       0.139000
     36 H3          12.2610    -5.8180    -7.8350 ha         1 P4Z       0.150000
     37 H4           6.3640     8.3810    -9.3960 h4         1 P4Z       0.025100
     38 H5           5.3430     6.6240   -10.7030 ha         1 P4Z       0.144000
     39 H6           4.3580     2.2750   -12.1520 h1         1 P4Z       0.084700
     40 H7           8.8410     0.8030   -11.3410 ha         1 P4Z       0.142000
     41 H8           8.5440     1.5900    -7.1400 ha         1 P4Z       0.142000
     42 H9          10.3240    -5.6480    -9.3700 ha         1 P4Z       0.142000
     43 H10          9.2480    -3.4670    -9.7670 ha         1 P4Z       0.144000
     44 H11          9.1030     5.8140    -7.7080 h4         1 P4Z       0.041100
     45 H12          4.7950     5.0650   -11.6020 hn         1 P4Z       0.463800
     46 H13          6.5830     2.8180   -13.2730 hc         1 P4Z       0.060700
     47 H14          5.7770     4.0950   -14.1530 hc         1 P4Z       0.060700
     48 H15          6.0270     1.9560   -15.4740 hc         1 P4Z       0.042033
     49 H16          5.0070     1.1200   -14.3090 hc         1 P4Z       0.042033
     50 H17          4.3360     2.4040   -15.3160 hc         1 P4Z       0.042033
     51 H18          1.5400     3.4640   -13.9000 hn         1 P4Z       0.324500
     52 H19          2.5030     2.1010   -13.4810 hn         1 P4Z       0.324500
@<TRIPOS>BOND
     1     1     2 ar  
     2     1    16 ar  
     3     1    34 1   
     4     2     3 ar  
     5     2     4 1   
     6     3    14 ar  
     7     3    35 1   
     8     4     5 ar  
     9     4    19 ar  
    10     5    17 ar  
    11     5    21 1   
    12     6    17 ar  
    13     6    18 ar  
    14     6    36 1   
    15     7    12 ar  
    16     7    15 1   
    17     7    22 ar  
    18     8    11 ar  
    19     8    22 ar  
    20     8    23 ar  
    21     9    10 ar  
    22     9    24 ar  
    23     9    37 1   
    24    10    11 ar  
    25    10    38 1   
    26    11    25 ar  
    27    12    25 ar  
    28    12    26 1   
    29    13    28 1   
    30    13    29 1   
    31    13    31 1   
    32    13    39 1   
    33    14    15 ar  
    34    14    40 1   
    35    15    16 ar  
    36    16    41 1   
    37    17    20 1   
    38    18    19 ar  
    39    18    42 1   
    40    19    43 1   
    41    23    24 ar  
    42    23    44 1   
    43    25    28 1   
    44    26    27 3   
    45    28    45 1   
    46    29    30 1   
    47    29    46 1   
    48    29    47 1   
    49    30    48 1   
    50    30    49 1   
    51    30    50 1   
    52    31    32 2   
    53    31    33 1   
    54    33    51 1   
    55    33    52 1   
@<TRIPOS>SUBSTRUCTURE
     1 P4Z         1 TEMP              0 ****  ****    0 ROOT
