@<TRIPOS>MOLECULE
P50
  126   125     1     0     0
SMALL
No Charge or Current Charge


@<TRIPOS>ATOM
      1 O47          3.5220    -7.7590     0.7860 o          1 P50      -0.513000
      2 C38          3.2580    -6.7220     1.3800 c          1 P50       0.601100
      3 C39          4.3140    -5.7090     1.8270 c3         1 P50      -0.141400
      4 C40          4.7250    -4.7680     0.6680 c3         1 P50      -0.065400
      5 C41          5.7260    -3.6720     1.1000 c3         1 P50      -0.077400
      6 C42          6.1860    -2.7750    -0.0720 c3         1 P50      -0.073400
      7 C43          7.1650    -1.6570     0.3560 c3         1 P50      -0.076400
      8 C44          7.6610    -0.8030    -0.8340 c3         1 P50      -0.071400
      9 C45          8.6380     0.3200    -0.4230 c3         1 P50      -0.045200
     10 C46          9.1810     1.0670    -1.6290 c2         1 P50      -0.211200
     11 C48          8.8740     2.3120    -2.0380 c2         1 P50      -0.220200
     12 C49          7.8870     3.2840    -1.4170 c3         1 P50      -0.043200
     13 C50          8.5990     4.4320    -0.6720 c3         1 P50      -0.071400
     14 C51          7.6280     5.5020    -0.1230 c3         1 P50      -0.076400
     15 C52          8.3530     6.6510     0.6110 c3         1 P50      -0.073400
     16 C53          7.3930     7.7440     1.1290 c3         1 P50      -0.075400
     17 C54          8.1230     8.8910     1.8620 c3         1 P50      -0.075400
     18 C55          7.1650     9.9920     2.3660 c3         1 P50      -0.075400
     19 C56          7.8920    11.1350     3.1010 c3         1 P50      -0.088100
     20 O37          1.9980    -6.3300     1.7480 os         1 P50      -0.418100
     21 C2           0.8530    -7.1200     1.3360 c3         1 P50       0.159300
     22 C3           0.6490    -7.0330    -0.2130 c3         1 P50       0.220600
     23 O16          0.5770    -5.6650    -0.6430 os         1 P50      -0.564400
     24 P12         -0.4360    -5.2110    -1.8110 p5         1 P50       1.393800
     25 O13         -0.6020    -6.2750    -2.8450 o          1 P50      -0.814000
     26 O15          0.0150    -3.9240    -2.4140 o          1 P50      -0.814000
     27 OG          -1.7740    -4.9860    -0.9370 os         1 P50      -0.608400
     28 CB          -2.7460    -6.0260    -0.7560 c3         1 P50       0.257600
     29 CA          -3.8820    -5.8980    -1.8210 c3         1 P50       0.020500
     30 N           -3.3980    -5.8240    -3.2570 n8         1 P50      -0.969200
     31 C           -4.9290    -7.0180    -1.5420 c          1 P50       0.537900
     32 O           -5.2730    -7.8530    -2.3760 o          1 P50      -0.550100
     33 C1          -0.3700    -6.6850     2.1910 c3         1 P50       0.176600
     34 O19         -0.6370    -5.2830     1.9950 os         1 P50      -0.398100
     35 C17         -1.5990    -4.6900     2.7640 c          1 P50       0.618100
     36 O18         -2.2620    -5.2700     3.6140 o          1 P50      -0.545000
     37 C20         -1.7090    -3.1930     2.4760 c3         1 P50      -0.149400
     38 C21         -3.0790    -2.7880     1.8810 c3         1 P50      -0.055400
     39 C22         -3.1720    -1.2730     1.5920 c3         1 P50      -0.080400
     40 C23         -4.5790    -0.8140     1.1450 c3         1 P50      -0.073400
     41 C24         -4.6460     0.7040     0.8700 c3         1 P50      -0.075400
     42 C25         -6.0750     1.2220     0.5920 c3         1 P50      -0.074400
     43 C26         -6.1060     2.7470     0.3500 c3         1 P50      -0.074400
     44 C27         -7.5280     3.3290     0.2030 c3         1 P50      -0.074400
     45 C28         -7.5110     4.8580    -0.0130 c3         1 P50      -0.074400
     46 C29         -8.9160     5.4920    -0.0920 c3         1 P50      -0.074400
     47 C30         -8.8590     7.0220    -0.2990 c3         1 P50      -0.074400
     48 C31        -10.2510     7.6880    -0.3420 c3         1 P50      -0.074400
     49 C32        -10.1770     9.2180    -0.5420 c3         1 P50      -0.075400
     50 C33        -11.5640     9.8950    -0.5660 c3         1 P50      -0.075400
     51 C34        -11.4840    11.4210    -0.7570 c3         1 P50      -0.088100
     52 H1           3.8960    -5.0890     2.6290 hc         1 P50       0.071700
     53 H2           5.1990    -6.2490     2.1820 hc         1 P50       0.071700
     54 H3           5.1690    -5.3660    -0.1390 hc         1 P50       0.051700
     55 H4           3.8280    -4.2910     0.2530 hc         1 P50       0.051700
     56 H5           5.2630    -3.0480     1.8740 hc         1 P50       0.036700
     57 H6           6.6050    -4.1470     1.5550 hc         1 P50       0.036700
     58 H7           6.6670    -3.4000    -0.8340 hc         1 P50       0.039200
     59 H8           5.3060    -2.3170    -0.5430 hc         1 P50       0.039200
     60 H9           6.6710    -1.0060     1.0890 hc         1 P50       0.036700
     61 H10          8.0290    -2.1100     0.8590 hc         1 P50       0.036700
     62 H11          8.1580    -1.4580    -1.5590 hc         1 P50       0.039700
     63 H12          6.8000    -0.3550    -1.3460 hc         1 P50       0.039700
     64 H13          8.1340     0.9970     0.2760 hc         1 P50       0.043700
     65 H14          9.4740    -0.1200     0.1350 hc         1 P50       0.043700
     66 H15          9.9160     0.4910    -2.1950 ha         1 P50       0.163000
     67 H16          9.3630     2.7100    -2.9300 ha         1 P50       0.161000
     68 H17          7.2530     3.7070    -2.2060 hc         1 P50       0.045700
     69 H18          7.2040     2.7750    -0.7270 hc         1 P50       0.045700
     70 H19          9.1840     4.0110     0.1550 hc         1 P50       0.037200
     71 H20          9.3100     4.9120    -1.3550 hc         1 P50       0.037200
     72 H21          7.0450     5.9180    -0.9540 hc         1 P50       0.038700
     73 H22          6.9160     5.0270     0.5640 hc         1 P50       0.038700
     74 H23          8.9200     6.2380     1.4550 hc         1 P50       0.035700
     75 H24          9.0830     7.1090    -0.0700 hc         1 P50       0.035700
     76 H25          6.8300     8.1580     0.2840 hc         1 P50       0.038200
     77 H26          6.6620     7.2890     1.8090 hc         1 P50       0.038200
     78 H27          8.6780     8.4780     2.7130 hc         1 P50       0.035700
     79 H28          8.8610     9.3390     1.1850 hc         1 P50       0.035700
     80 H29          6.6140    10.4110     1.5150 hc         1 P50       0.037700
     81 H30          6.4240     9.5490     3.0410 hc         1 P50       0.037700
     82 H31          8.4210    10.7560     3.9830 hc         1 P50       0.030033
     83 H32          8.6210    11.6200     2.4420 hc         1 P50       0.030033
     84 H33          7.1740    11.8940     3.4330 hc         1 P50       0.030033
     85 H34          1.0320    -8.1760     1.5770 h1         1 P50       0.046700
     86 H35          1.4810    -7.5340    -0.7220 h1         1 P50       0.031700
     87 H36         -0.2590    -7.5880    -0.4770 h1         1 P50       0.031700
     88 H38         -2.2880    -7.0200    -0.8410 h1         1 P50       0.023200
     89 H39         -3.1840    -5.9560     0.2470 h1         1 P50       0.023200
     90 H40         -4.4130    -4.9600    -1.6040 h1         1 P50       0.096700
     91 H41         -2.3970    -6.0900    -3.2770 hn         1 P50       0.397000
     92 H42         -3.8500    -6.5720    -3.8000 hn         1 P50       0.397000
     93 H44         -5.3570    -7.0260    -0.5160 h4         1 P50      -0.022800
     94 H45         -1.2430    -7.2900     1.9160 h1         1 P50       0.044700
     95 H46         -0.1410    -6.8850     3.2470 h1         1 P50       0.044700
     96 H47         -1.5640    -2.6620     3.4230 hc         1 P50       0.104200
     97 H48         -0.9130    -2.9040     1.7820 hc         1 P50       0.104200
     98 H49         -3.2560    -3.3440     0.9520 hc         1 P50       0.035200
     99 H50         -3.8720    -3.0700     2.5840 hc         1 P50       0.035200
    100 H51         -2.8910    -0.7200     2.4990 hc         1 P50       0.048700
    101 H52         -2.4400    -1.0090     0.8180 hc         1 P50       0.048700
    102 H53         -4.8740    -1.3590     0.2390 hc         1 P50       0.031200
    103 H54         -5.3040    -1.0700     1.9270 hc         1 P50       0.031200
    104 H55         -4.2400     1.2410     1.7360 hc         1 P50       0.039700
    105 H56         -4.0010     0.9440     0.0160 hc         1 P50       0.039700
    106 H57         -6.4910     0.7050    -0.2820 hc         1 P50       0.034200
    107 H58         -6.7170     0.9790     1.4470 hc         1 P50       0.034200
    108 H59         -5.6060     3.2490     1.1880 hc         1 P50       0.037700
    109 H60         -5.5260     2.9780    -0.5520 hc         1 P50       0.037700
    110 H61         -8.0370     2.8450    -0.6400 hc         1 P50       0.035700
    111 H62         -8.1080     3.0970     1.1060 hc         1 P50       0.035700
    112 H63         -6.9560     5.3280     0.8090 hc         1 P50       0.037200
    113 H64         -6.9620     5.0820    -0.9370 hc         1 P50       0.037200
    114 H65         -9.4770     5.0330    -0.9160 hc         1 P50       0.036200
    115 H66         -9.4630     5.2720     0.8330 hc         1 P50       0.036200
    116 H67         -8.2730     7.4720     0.5120 hc         1 P50       0.037200
    117 H68         -8.3280     7.2380    -1.2350 hc         1 P50       0.037200
    118 H69        -10.8390     7.2440    -1.1560 hc         1 P50       0.036200
    119 H70        -10.7820     7.4710     0.5930 hc         1 P50       0.036200
    120 H71         -9.5770     9.6570     0.2650 hc         1 P50       0.036700
    121 H72         -9.6540     9.4330    -1.4820 hc         1 P50       0.036700
    122 H73        -12.1650     9.4640    -1.3750 hc         1 P50       0.035700
    123 H74        -12.0890     9.6810     0.3730 hc         1 P50       0.035700
    124 H75        -10.9150    11.8860     0.0570 hc         1 P50       0.030033
    125 H76        -10.9950    11.6680    -1.7070 hc         1 P50       0.030033
    126 H77        -12.4900    11.8590    -0.7660 hc         1 P50       0.030033
@<TRIPOS>BOND
     1     1     2 2   
     2     2     3 1   
     3     2    20 1   
     4     3     4 1   
     5     3    52 1   
     6     3    53 1   
     7     4     5 1   
     8     4    54 1   
     9     4    55 1   
    10     5     6 1   
    11     5    56 1   
    12     5    57 1   
    13     6     7 1   
    14     6    58 1   
    15     6    59 1   
    16     7     8 1   
    17     7    60 1   
    18     7    61 1   
    19     8     9 1   
    20     8    62 1   
    21     8    63 1   
    22     9    10 1   
    23     9    64 1   
    24     9    65 1   
    25    10    11 2   
    26    10    66 1   
    27    11    12 1   
    28    11    67 1   
    29    12    13 1   
    30    12    68 1   
    31    12    69 1   
    32    13    14 1   
    33    13    70 1   
    34    13    71 1   
    35    14    15 1   
    36    14    72 1   
    37    14    73 1   
    38    15    16 1   
    39    15    74 1   
    40    15    75 1   
    41    16    17 1   
    42    16    76 1   
    43    16    77 1   
    44    17    18 1   
    45    17    78 1   
    46    17    79 1   
    47    18    19 1   
    48    18    80 1   
    49    18    81 1   
    50    19    82 1   
    51    19    83 1   
    52    19    84 1   
    53    20    21 1   
    54    21    22 1   
    55    21    33 1   
    56    21    85 1   
    57    22    23 1   
    58    22    86 1   
    59    22    87 1   
    60    23    24 1   
    61    24    25 1   
    62    24    26 1   
    63    24    27 1   
    64    27    28 1   
    65    28    29 1   
    66    28    88 1   
    67    28    89 1   
    68    29    30 1   
    69    29    31 1   
    70    29    90 1   
    71    30    91 1   
    72    30    92 1   
    73    31    32 2   
    74    31    93 1   
    75    33    34 1   
    76    33    94 1   
    77    33    95 1   
    78    34    35 1   
    79    35    36 2   
    80    35    37 1   
    81    37    38 1   
    82    37    96 1   
    83    37    97 1   
    84    38    39 1   
    85    38    98 1   
    86    38    99 1   
    87    39    40 1   
    88    39   100 1   
    89    39   101 1   
    90    40    41 1   
    91    40   102 1   
    92    40   103 1   
    93    41    42 1   
    94    41   104 1   
    95    41   105 1   
    96    42    43 1   
    97    42   106 1   
    98    42   107 1   
    99    43    44 1   
   100    43   108 1   
   101    43   109 1   
   102    44    45 1   
   103    44   110 1   
   104    44   111 1   
   105    45    46 1   
   106    45   112 1   
   107    45   113 1   
   108    46    47 1   
   109    46   114 1   
   110    46   115 1   
   111    47    48 1   
   112    47   116 1   
   113    47   117 1   
   114    48    49 1   
   115    48   118 1   
   116    48   119 1   
   117    49    50 1   
   118    49   120 1   
   119    49   121 1   
   120    50    51 1   
   121    50   122 1   
   122    50   123 1   
   123    51   124 1   
   124    51   125 1   
   125    51   126 1   
@<TRIPOS>SUBSTRUCTURE
     1 P50         1 TEMP              0 ****  ****    0 ROOT
