@<TRIPOS>MOLECULE
P50
  126   125     1     0     0
SMALL
abcg2


@<TRIPOS>ATOM
      1 O47          3.5040    -5.9940     0.1920 o          1 P50      -0.513000
      2 C38          2.9900    -4.9670     0.5590 c          1 P50       0.601100
      3 C39          3.7250    -3.7530     1.0560 c3         1 P50      -0.141400
      4 C40          5.2330    -3.8200     0.8800 c3         1 P50      -0.065400
      5 C41          5.9090    -2.5700     1.4290 c3         1 P50      -0.077400
      6 C42          7.4200    -2.5620     1.2290 c3         1 P50      -0.073400
      7 C43          8.0810    -1.3160     1.8070 c3         1 P50      -0.076400
      8 C44          9.5790    -1.2420     1.5380 c3         1 P50      -0.071400
      9 C45         10.2200     0.0100     2.1390 c3         1 P50      -0.045200
     10 C46         11.6840     0.1030     1.8370 c2         1 P50      -0.211200
     11 C48         12.2910     0.9930     1.0510 c2         1 P50      -0.220200
     12 C49         11.6600     2.1350     0.3190 c3         1 P50      -0.043200
     13 C50         12.1450     3.4950     0.8240 c3         1 P50      -0.071400
     14 C51         11.4910     4.6600     0.0920 c3         1 P50      -0.076400
     15 C52         11.9670     6.0230     0.5770 c3         1 P50      -0.073400
     16 C53         11.2780     7.1830    -0.1300 c3         1 P50      -0.075400
     17 C54         11.7520     8.5500     0.3490 c3         1 P50      -0.075400
     18 C55         11.0530     9.7090    -0.3510 c3         1 P50      -0.075400
     19 C56         11.5330    11.0700     0.1330 c3         1 P50      -0.088100
     20 O37          1.6740    -4.7710     0.5890 os         1 P50      -0.418100
     21 C2           0.7910    -5.8350     0.2130 c3         1 P50       0.159300
     22 C3           0.6190    -5.9130    -1.2940 c3         1 P50       0.220600
     23 O16          0.1500    -4.6950    -1.8200 os         1 P50      -0.564400
     24 P12         -1.1000    -4.6580    -2.8730 p5         1 P50       1.393800
     25 O13         -0.8890    -5.6470    -3.9810 o          1 P50      -0.814000
     26 O15         -1.3280    -3.2110    -3.1670 o          1 P50      -0.814000
     27 OG          -2.2680    -5.2420    -1.8710 os         1 P50      -0.608400
     28 CB          -3.4250    -5.8300    -2.4170 c3         1 P50       0.257600
     29 CA          -4.6730    -5.2770    -1.7310 c3         1 P50       0.020500
     30 N           -4.8850    -3.8870    -2.0400 n8         1 P50      -0.969200
     31 C           -5.8340    -6.1950    -2.0390 c          1 P50       0.537900
     32 O           -6.8760    -5.8380    -2.5280 o          1 P50      -0.550100
     33 C1          -0.4890    -5.6350     0.9940 c3         1 P50       0.176600
     34 O19         -1.0140    -4.3410     0.7280 os         1 P50      -0.398100
     35 C17         -2.2980    -4.1230     0.9820 c          1 P50       0.618100
     36 O18         -2.9990    -4.9170     1.5640 o          1 P50      -0.545000
     37 C20         -2.7530    -2.7960     0.4470 c3         1 P50      -0.149400
     38 C21         -4.0830    -2.3330     1.0170 c3         1 P50      -0.055400
     39 C22         -4.5620    -1.0410     0.3690 c3         1 P50      -0.080400
     40 C23         -5.8880    -0.5520     0.9370 c3         1 P50      -0.073400
     41 C24         -6.3860     0.7360     0.2930 c3         1 P50      -0.075400
     42 C25         -7.6940     1.2370     0.8910 c3         1 P50      -0.074400
     43 C26         -8.2000     2.5260     0.2540 c3         1 P50      -0.074400
     44 C27         -9.4960     3.0330     0.8730 c3         1 P50      -0.074400
     45 C28        -10.0050     4.3240     0.2430 c3         1 P50      -0.074400
     46 C29        -11.2940     4.8340     0.8760 c3         1 P50      -0.074400
     47 C30        -11.8060     6.1270     0.2530 c3         1 P50      -0.074400
     48 C31        -13.0890     6.6380     0.8970 c3         1 P50      -0.074400
     49 C32        -13.6010     7.9340     0.2810 c3         1 P50      -0.075400
     50 C33        -14.8800     8.4470     0.9340 c3         1 P50      -0.075400
     51 C34        -15.3850     9.7450     0.3200 c3         1 P50      -0.088100
     52 H1           3.3200    -2.8700     0.5530 hc         1 P50       0.071700
     53 H2           3.4710    -3.6250     2.1140 hc         1 P50       0.071700
     54 H3           5.6320    -4.7030     1.3860 hc         1 P50       0.051700
     55 H4           5.4780    -3.9330    -0.1800 hc         1 P50       0.051700
     56 H5           5.4790    -1.6840     0.9500 hc         1 P50       0.036700
     57 H6           5.6830    -2.4750     2.4970 hc         1 P50       0.036700
     58 H7           7.8570    -3.4540     1.6890 hc         1 P50       0.039200
     59 H8           7.6430    -2.6310     0.1590 hc         1 P50       0.039200
     60 H9           7.5980    -0.4260     1.3890 hc         1 P50       0.036700
     61 H10          7.9010    -1.2790     2.8870 hc         1 P50       0.036700
     62 H11         10.0720    -2.1350     1.9370 hc         1 P50       0.039700
     63 H12          9.7550    -1.2520     0.4580 hc         1 P50       0.039700
     64 H13          9.6880     0.8930     1.7760 hc         1 P50       0.043700
     65 H14         10.0780    -0.0090     3.2250 hc         1 P50       0.043700
     66 H15         12.3010    -0.6630     2.3000 ha         1 P50       0.163000
     67 H16         13.3680     0.9060     0.9320 ha         1 P50       0.161000
     68 H17         11.8970     2.0520    -0.7480 hc         1 P50       0.045700
     69 H18         10.5710     2.0930     0.3910 hc         1 P50       0.045700
     70 H19         11.9390     3.5750     1.8960 hc         1 P50       0.037200
     71 H20         13.2340     3.5580     0.7170 hc         1 P50       0.037200
     72 H21         11.6820     4.5680    -0.9830 hc         1 P50       0.038700
     73 H22         10.4040     4.5930     0.2120 hc         1 P50       0.038700
     74 H23         11.7970     6.1040     1.6570 hc         1 P50       0.035700
     75 H24         13.0510     6.1010     0.4360 hc         1 P50       0.035700
     76 H25         11.4430     7.1000    -1.2100 hc         1 P50       0.038200
     77 H26         10.1950     7.1040     0.0170 hc         1 P50       0.038200
     78 H27         11.5930     8.6310     1.4300 hc         1 P50       0.035700
     79 H28         12.8340     8.6340     0.1960 hc         1 P50       0.035700
     80 H29         11.2100     9.6260    -1.4310 hc         1 P50       0.037700
     81 H30          9.9730     9.6250    -0.1960 hc         1 P50       0.037700
     82 H31         11.3590    11.1920     1.2030 hc         1 P50       0.030033
     83 H32         12.6040    11.1940    -0.0400 hc         1 P50       0.030033
     84 H33         11.0200    11.8840    -0.3810 hc         1 P50       0.030033
     85 H34          1.2000    -6.7980     0.5370 h1         1 P50       0.046700
     86 H35          1.5790    -6.1670    -1.7530 h1         1 P50       0.031700
     87 H36         -0.0560    -6.7520    -1.4970 h1         1 P50       0.031700
     88 H38         -3.5100    -5.6610    -3.4960 h1         1 P50       0.023200
     89 H39         -3.3810    -6.9150    -2.2740 h1         1 P50       0.023200
     90 H40         -4.5150    -5.3830    -0.6490 h1         1 P50       0.096700
     91 H41         -5.1200    -3.7760    -3.0190 hn         1 P50       0.397000
     92 H42         -5.6690    -3.5250    -1.5140 hn         1 P50       0.397000
     93 H44         -5.6710    -7.2540    -1.7640 h4         1 P50      -0.022800
     94 H45         -1.1960    -6.4150     0.7070 h1         1 P50       0.044700
     95 H46         -0.2910    -5.7430     2.0640 h1         1 P50       0.044700
     96 H47         -1.9730    -2.0480     0.6180 hc         1 P50       0.104200
     97 H48         -2.8360    -2.9140    -0.6390 hc         1 P50       0.104200
     98 H49         -4.8380    -3.1090     0.8700 hc         1 P50       0.035200
     99 H50         -3.9980    -2.1890     2.0980 hc         1 P50       0.035200
    100 H51         -3.8030    -0.2620     0.4930 hc         1 P50       0.048700
    101 H52         -4.6610    -1.2020    -0.7100 hc         1 P50       0.048700
    102 H53         -6.6450    -1.3350     0.8160 hc         1 P50       0.031200
    103 H54         -5.7830    -0.3990     2.0170 hc         1 P50       0.031200
    104 H55         -5.6190     1.5130     0.3960 hc         1 P50       0.039700
    105 H56         -6.5130     0.5790    -0.7830 hc         1 P50       0.039700
    106 H57         -8.4600     0.4600     0.7930 hc         1 P50       0.034200
    107 H58         -7.5610     1.3950     1.9670 hc         1 P50       0.034200
    108 H59         -7.4290     3.3000     0.3410 hc         1 P50       0.037700
    109 H60         -8.3470     2.3670    -0.8200 hc         1 P50       0.037700
    110 H61        -10.2670     2.2590     0.7880 hc         1 P50       0.035700
    111 H62         -9.3460     3.1910     1.9470 hc         1 P50       0.035700
    112 H63         -9.2320     5.0960     0.3230 hc         1 P50       0.037200
    113 H64        -10.1650     4.1660    -0.8290 hc         1 P50       0.037200
    114 H65        -12.0680     4.0620     0.7970 hc         1 P50       0.036200
    115 H66        -11.1330     4.9890     1.9490 hc         1 P50       0.036200
    116 H67        -11.0300     6.8980     0.3290 hc         1 P50       0.037200
    117 H68        -11.9730     5.9720    -0.8180 hc         1 P50       0.037200
    118 H69        -13.8650     5.8680     0.8200 hc         1 P50       0.036200
    119 H70        -12.9200     6.7900     1.9690 hc         1 P50       0.036200
    120 H71        -12.8240     8.7040     0.3540 hc         1 P50       0.036700
    121 H72        -13.7770     7.7840    -0.7900 hc         1 P50       0.036700
    122 H73        -15.6560     7.6790     0.8610 hc         1 P50       0.035700
    123 H74        -14.7030     8.5950     2.0040 hc         1 P50       0.035700
    124 H75        -14.6360    10.5360     0.3980 hc         1 P50       0.030033
    125 H76        -15.6200     9.6190    -0.7380 hc         1 P50       0.030033
    126 H77        -16.2890    10.0980     0.8190 hc         1 P50       0.030033
@<TRIPOS>BOND
     1     1     2 2   
     2     2     3 1   
     3     2    20 1   
     4     3     4 1   
     5     3    52 1   
     6     3    53 1   
     7     4     5 1   
     8     4    54 1   
     9     4    55 1   
    10     5     6 1   
    11     5    56 1   
    12     5    57 1   
    13     6     7 1   
    14     6    58 1   
    15     6    59 1   
    16     7     8 1   
    17     7    60 1   
    18     7    61 1   
    19     8     9 1   
    20     8    62 1   
    21     8    63 1   
    22     9    10 1   
    23     9    64 1   
    24     9    65 1   
    25    10    11 2   
    26    10    66 1   
    27    11    12 1   
    28    11    67 1   
    29    12    13 1   
    30    12    68 1   
    31    12    69 1   
    32    13    14 1   
    33    13    70 1   
    34    13    71 1   
    35    14    15 1   
    36    14    72 1   
    37    14    73 1   
    38    15    16 1   
    39    15    74 1   
    40    15    75 1   
    41    16    17 1   
    42    16    76 1   
    43    16    77 1   
    44    17    18 1   
    45    17    78 1   
    46    17    79 1   
    47    18    19 1   
    48    18    80 1   
    49    18    81 1   
    50    19    82 1   
    51    19    83 1   
    52    19    84 1   
    53    20    21 1   
    54    21    22 1   
    55    21    33 1   
    56    21    85 1   
    57    22    23 1   
    58    22    86 1   
    59    22    87 1   
    60    23    24 1   
    61    24    25 1   
    62    24    26 1   
    63    24    27 1   
    64    27    28 1   
    65    28    29 1   
    66    28    88 1   
    67    28    89 1   
    68    29    30 1   
    69    29    31 1   
    70    29    90 1   
    71    30    91 1   
    72    30    92 1   
    73    31    32 2   
    74    31    93 1   
    75    33    34 1   
    76    33    94 1   
    77    33    95 1   
    78    34    35 1   
    79    35    36 2   
    80    35    37 1   
    81    37    38 1   
    82    37    96 1   
    83    37    97 1   
    84    38    39 1   
    85    38    98 1   
    86    38    99 1   
    87    39    40 1   
    88    39   100 1   
    89    39   101 1   
    90    40    41 1   
    91    40   102 1   
    92    40   103 1   
    93    41    42 1   
    94    41   104 1   
    95    41   105 1   
    96    42    43 1   
    97    42   106 1   
    98    42   107 1   
    99    43    44 1   
   100    43   108 1   
   101    43   109 1   
   102    44    45 1   
   103    44   110 1   
   104    44   111 1   
   105    45    46 1   
   106    45   112 1   
   107    45   113 1   
   108    46    47 1   
   109    46   114 1   
   110    46   115 1   
   111    47    48 1   
   112    47   116 1   
   113    47   117 1   
   114    48    49 1   
   115    48   118 1   
   116    48   119 1   
   117    49    50 1   
   118    49   120 1   
   119    49   121 1   
   120    50    51 1   
   121    50   122 1   
   122    50   123 1   
   123    51   124 1   
   124    51   125 1   
   125    51   126 1   
@<TRIPOS>SUBSTRUCTURE
     1 P50         1 TEMP              0 ****  ****    0 ROOT
