@<TRIPOS>MOLECULE
P51
   61    63     1     0     0
SMALL
bcc


@<TRIPOS>ATOM
      1 C01         -1.8470     0.6970    -0.0670 ca         1 P51      -0.036000
      2 C04         -3.2680     0.6030    -0.0490 cg         1 P51      -0.071000
      3 C05         -4.4680     0.5050    -0.0280 c1         1 P51      -0.144100
      4 C06         -5.9200     0.4230    -0.0210 c3         1 P51       0.235500
      5 O           -6.2800    -0.9250    -0.2600 os         1 P51      -0.316900
      6 C07         -7.5960    -1.2330    -0.3050 ca         1 P51       0.140100
      7 C1           0.2960    -0.1510    -0.8130 ca         1 P51      -0.210300
      8 N1           2.3490    -1.4870    -0.9970 n3         1 P51      -0.742600
      9 O1           2.2800     0.9620    -0.0980 oh         1 P51      -0.512100
     10 C02         -1.1980     1.7210     0.6230 ca         1 P51      -0.028000
     11 C2           1.1070    -1.1000    -1.6580 c3         1 P51       0.208100
     12 N2           5.7240    -3.5210     0.6640 n3         1 P51      -0.725600
     13 C03          3.2870    -2.1060    -1.9240 c6         1 P51       0.160300
     14 C3          -1.0810    -0.2330    -0.7750 ca         1 P51      -0.040000
     15 C4           0.1830     1.7960     0.6030 ca         1 P51      -0.014100
     16 C7           0.9550     0.8720    -0.1050 ca         1 P51       0.220100
     17 C8           4.6180    -2.4040    -1.2580 c6         1 P51      -0.081900
     18 C10          4.4550    -3.3040    -0.0320 c6         1 P51       0.193500
     19 C11          5.5710    -4.4200     1.8030 c3         1 P51       0.169800
     20 C12          6.8500    -4.6650     2.5890 c3         1 P51      -0.110600
     21 C13          6.8240    -3.9000    -0.2130 c3         1 P51       0.169800
     22 C14          6.6750    -5.2210    -0.9680 c3         1 P51      -0.110600
     23 C15          3.4160    -2.6540     0.8850 c6         1 P51      -0.081900
     24 C16          2.1200    -2.3550     0.1520 c6         1 P51       0.160300
     25 I2           1.1620     3.3190     1.6630 i          1 P51      -0.154900
     26 C08         -7.9000    -2.5730    -0.5500 ca         1 P51      -0.188500
     27 C09         -9.2200    -2.9830    -0.6130 ca         1 P51      -0.092000
     28 C17        -10.2550    -2.0710    -0.4330 ca         1 P51      -0.165000
     29 C18         -9.9470    -0.7420    -0.1910 ca         1 P51      -0.092000
     30 C           -8.6250    -0.3120    -0.1260 ca         1 P51      -0.188500
     31 H02         -1.7790     2.4460     1.1750 ha         1 P51       0.150000
     32 H3          -1.5780    -1.0310    -1.3130 ha         1 P51       0.139000
     33 H061        -6.3060     0.7690     0.9450 h1         1 P51       0.051700
     34 H062        -6.3350     1.0830    -0.7910 h1         1 P51       0.051700
     35 H08         -7.0960    -3.2840    -0.6910 ha         1 P51       0.139000
     36 H           -8.4270     0.7340     0.0630 ha         1 P51       0.139000
     37 H21C         0.5000    -1.9720    -1.9370 h1         1 P51       0.049700
     38 H22C         1.3760    -0.5960    -2.5910 h1         1 P51       0.049700
     39 H031         2.8620    -3.0350    -2.3340 h1         1 P51       0.041950
     40 H032         3.4410    -1.4290    -2.7660 h1         1 P51       0.041950
     41 H161         1.4210    -1.8700     0.8360 h1         1 P51       0.041950
     42 H162         1.6430    -3.2940    -0.1710 h1         1 P51       0.041950
     43 H1           2.6270     0.0830    -0.4490 ho         1 P51       0.489000
     44 H10          4.0290    -4.2650    -0.3790 h1         1 P51       0.018700
     45 H111         4.8570    -3.9730     2.4950 h1         1 P51       0.039450
     46 H112         5.1360    -5.3900     1.5100 h1         1 P51       0.039450
     47 H131         6.9940    -3.0950    -0.9290 h1         1 P51       0.039450
     48 H132         7.7370    -3.9310     0.3820 h1         1 P51       0.039450
     49 H81C         5.2530    -2.8710    -2.0130 hc         1 P51       0.058950
     50 H82C         5.1010    -1.4680    -0.9590 hc         1 P51       0.058950
     51 H151         3.1620    -3.2950     1.7290 hc         1 P51       0.058950
     52 H152         3.8300    -1.7280     1.2970 hc         1 P51       0.058950
     53 H121         7.5760    -5.2770     2.0540 hc         1 P51       0.036700
     54 H122         7.3310    -3.7240     2.8610 hc         1 P51       0.036700
     55 H123         6.6050    -5.1930     3.5120 hc         1 P51       0.036700
     56 H141         7.5540    -5.3900    -1.5930 hc         1 P51       0.036700
     57 H142         6.5850    -6.0740    -0.2930 hc         1 P51       0.036700
     58 H143         5.8030    -5.2230    -1.6240 hc         1 P51       0.036700
     59 H09         -9.4420    -4.0250    -0.8040 ha         1 P51       0.130500
     60 H17        -11.2870    -2.3940    -0.4830 ha         1 P51       0.133000
     61 H18        -10.7390    -0.0180    -0.0490 ha         1 P51       0.130500
@<TRIPOS>BOND
     1     1     2 1   
     2     1    10 ar  
     3     1    14 ar  
     4     2     3 3   
     5     3     4 1   
     6     4     5 1   
     7     4    33 1   
     8     4    34 1   
     9     5     6 1   
    10     6    26 ar  
    11     6    30 ar  
    12     7    11 1   
    13     7    14 ar  
    14     7    16 ar  
    15     8    11 1   
    16     8    13 1   
    17     8    24 1   
    18     9    16 1   
    19     9    43 1   
    20    10    15 ar  
    21    10    31 1   
    22    11    37 1   
    23    11    38 1   
    24    12    18 1   
    25    12    19 1   
    26    12    21 1   
    27    13    17 1   
    28    13    39 1   
    29    13    40 1   
    30    14    32 1   
    31    15    16 ar  
    32    15    25 1   
    33    17    18 1   
    34    17    49 1   
    35    17    50 1   
    36    18    23 1   
    37    18    44 1   
    38    19    20 1   
    39    19    45 1   
    40    19    46 1   
    41    20    53 1   
    42    20    54 1   
    43    20    55 1   
    44    21    22 1   
    45    21    47 1   
    46    21    48 1   
    47    22    56 1   
    48    22    57 1   
    49    22    58 1   
    50    23    24 1   
    51    23    51 1   
    52    23    52 1   
    53    24    41 1   
    54    24    42 1   
    55    26    27 ar  
    56    26    35 1   
    57    27    28 ar  
    58    27    59 1   
    59    28    29 ar  
    60    28    60 1   
    61    29    30 ar  
    62    29    61 1   
    63    30    36 1   
@<TRIPOS>SUBSTRUCTURE
     1 P51         1 TEMP              0 ****  ****    0 ROOT
