@<TRIPOS>MOLECULE
P51
   61    63     1     0     0
SMALL
No Charge or Current Charge


@<TRIPOS>ATOM
      1 C01         -1.9020     0.7060     0.0810 ca         1 P51      -0.036000
      2 C04         -3.3290     0.6150     0.1970 cg         1 P51      -0.071000
      3 C05         -4.5370     0.5290     0.2910 c1         1 P51      -0.144100
      4 C06         -5.9920     0.3800     0.4110 c3         1 P51       0.258700
      5 O           -6.4100    -0.7130    -0.4250 os         1 P51      -0.340100
      6 C07         -7.7300    -1.0990    -0.5240 ca         1 P51       0.140100
      7 C1           0.2130    -0.1970    -0.7530 ca         1 P51      -0.210300
      8 N1           2.2830    -1.5990    -0.9960 n3         1 P51      -0.742600
      9 O1           2.2510     0.9300    -0.2510 oh         1 P51      -0.551100
     10 C02         -1.2150     1.7800     0.6760 ca         1 P51      -0.010000
     11 C2           0.9580    -1.2540    -1.5680 c3         1 P51       0.208100
     12 N2           5.9120    -3.5020     0.5610 n3         1 P51      -0.725600
     13 C03          3.1290    -2.3470    -1.9570 c6         1 P51       0.160300
     14 C3          -1.1900    -0.2760    -0.6330 ca         1 P51      -0.022000
     15 C4           0.1810     1.8700     0.5620 ca         1 P51       0.123000
     16 C7           0.8940     0.8820    -0.1510 ca         1 P51       0.220100
     17 C8           4.5480    -2.5770    -1.3940 c6         1 P51      -0.081900
     18 C10          4.5270    -3.3360    -0.0310 c6         1 P51       0.193500
     19 C11          5.9190    -4.1570     1.9080 c3         1 P51       0.169800
     20 C12          7.2950    -4.2460     2.6030 c3         1 P51      -0.110600
     21 C13          6.9190    -4.0920    -0.3790 c3         1 P51       0.169800
     22 C14          6.6330    -5.5420    -0.8300 c3         1 P51      -0.110600
     23 C15          3.5530    -2.5810     0.9250 c6         1 P51      -0.081900
     24 C16          2.1690    -2.3490     0.2840 c6         1 P51       0.160300
     25 I2           1.2120     3.5390     1.5100 i          1 P51      -0.292000
     26 C08         -8.0350    -2.1790    -1.3680 ca         1 P51      -0.170500
     27 C09         -9.3630    -2.6200    -1.5100 ca         1 P51      -0.074000
     28 C17        -10.3930    -1.9760    -0.8040 ca         1 P51      -0.147000
     29 C18        -10.0970    -0.8950     0.0430 ca         1 P51      -0.074000
     30 C           -8.7690    -0.4540     0.1850 ca         1 P51      -0.170500
     31 H02         -1.7590     2.5420     1.2280 ha         1 P51       0.132000
     32 H3          -1.7290    -1.0990    -1.0990 ha         1 P51       0.121000
     33 H061        -6.2450     0.1870     1.4610 h1         1 P51       0.051700
     34 H062        -6.4730     1.3160     0.0990 h1         1 P51       0.051700
     35 H08         -7.2390    -2.6780    -1.9140 ha         1 P51       0.121000
     36 H           -8.5680     0.3840     0.8460 ha         1 P51       0.121000
     37 H21C         0.3380    -2.1580    -1.6580 h1         1 P51       0.049700
     38 H22C         1.0840    -0.8550    -2.5840 h1         1 P51       0.049700
     39 H031         2.6720    -3.3200    -2.1940 h1         1 P51       0.041950
     40 H032         3.2150    -1.7920    -2.9020 h1         1 P51       0.041950
     41 H161         1.5420    -1.7990     1.0000 h1         1 P51       0.041950
     42 H162         1.6840    -3.3220     0.1140 h1         1 P51       0.041950
     43 H1           2.4900     0.0110    -0.5710 ho         1 P51       0.528000
     44 H10          4.0950    -4.3310    -0.2120 h1         1 P51       0.018700
     45 H111         5.2890    -3.5900     2.6020 h1         1 P51       0.039450
     46 H112         5.4910    -5.1670     1.8430 h1         1 P51       0.039450
     47 H131         7.0220    -3.4670    -1.2740 h1         1 P51       0.039450
     48 H132         7.9170    -4.0720     0.0760 h1         1 P51       0.039450
     49 H81C         5.1060    -3.1430    -2.1490 hc         1 P51       0.058950
     50 H82C         5.0560    -1.6110    -1.2760 hc         1 P51       0.058950
     51 H151         3.3860    -3.1500     1.8460 hc         1 P51       0.058950
     52 H152         3.9890    -1.6160     1.2180 hc         1 P51       0.058950
     53 H121         7.9490    -4.9730     2.1080 hc         1 P51       0.036700
     54 H122         7.7900    -3.2680     2.6100 hc         1 P51       0.036700
     55 H123         7.1670    -4.5720     3.6420 hc         1 P51       0.036700
     56 H141         7.4270    -5.8870    -1.5010 hc         1 P51       0.036700
     57 H142         6.5970    -6.2240     0.0270 hc         1 P51       0.036700
     58 H143         5.6830    -5.6100    -1.3710 hc         1 P51       0.036700
     59 H09         -9.5920    -3.4570    -2.1660 ha         1 P51       0.112500
     60 H17        -11.4210    -2.3160    -0.9130 ha         1 P51       0.115000
     61 H18        -10.8960    -0.3980     0.5880 ha         1 P51       0.112500
@<TRIPOS>BOND
     1     1     2 1   
     2     1    10 ar  
     3     1    14 ar  
     4     2     3 3   
     5     3     4 1   
     6     4     5 1   
     7     4    33 1   
     8     4    34 1   
     9     5     6 1   
    10     6    26 ar  
    11     6    30 ar  
    12     7    11 1   
    13     7    14 ar  
    14     7    16 ar  
    15     8    11 1   
    16     8    13 1   
    17     8    24 1   
    18     9    16 1   
    19     9    43 1   
    20    10    15 ar  
    21    10    31 1   
    22    11    37 1   
    23    11    38 1   
    24    12    18 1   
    25    12    19 1   
    26    12    21 1   
    27    13    17 1   
    28    13    39 1   
    29    13    40 1   
    30    14    32 1   
    31    15    16 ar  
    32    15    25 1   
    33    17    18 1   
    34    17    49 1   
    35    17    50 1   
    36    18    23 1   
    37    18    44 1   
    38    19    20 1   
    39    19    45 1   
    40    19    46 1   
    41    20    53 1   
    42    20    54 1   
    43    20    55 1   
    44    21    22 1   
    45    21    47 1   
    46    21    48 1   
    47    22    56 1   
    48    22    57 1   
    49    22    58 1   
    50    23    24 1   
    51    23    51 1   
    52    23    52 1   
    53    24    41 1   
    54    24    42 1   
    55    26    27 ar  
    56    26    35 1   
    57    27    28 ar  
    58    27    59 1   
    59    28    29 ar  
    60    28    60 1   
    61    29    30 ar  
    62    29    61 1   
    63    30    36 1   
@<TRIPOS>SUBSTRUCTURE
     1 P51         1 TEMP              0 ****  ****    0 ROOT
