@<TRIPOS>MOLECULE
P52
   72    74     1     0     0
SMALL
No Charge or Current Charge


@<TRIPOS>ATOM
      1 O1           2.0270     1.9500     1.6250 o          1 P52      -0.810500
      2 O2           0.8600    -0.2500     1.4720 o          1 P52      -0.810500
      3 C2           5.2020    -1.9730     0.9860 ca         1 P52      -0.047300
      4 C3           5.9720    -1.4790     2.0570 ca         1 P52      -0.109000
      5 C4           7.2400    -2.0220     2.3290 ca         1 P52      -0.120000
      6 C5           7.7450    -3.0620     1.5310 ca         1 P52      -0.134000
      7 C6           6.9830    -3.5580     0.4600 ca         1 P52      -0.120000
      8 N1           2.8570     1.4220    -1.8380 n8         1 P52      -1.000200
      9 C7           5.7150    -3.0140     0.1880 ca         1 P52      -0.109000
     10 C8           3.9230    -0.1030    -0.1780 c3         1 P52      -0.038400
     11 C9           2.5640     0.4570    -0.6940 c3         1 P52      -0.185500
     12 C10         -2.6130     1.4360    -0.1190 c          1 P52       0.606100
     13 C11         -0.0350     1.7350    -0.1730 c3         1 P52      -0.421400
     14 C12         -1.3640     1.9840     0.6270 c3         1 P52      -0.086700
     15 N2          -3.3160     0.4590     0.5540 ns         1 P52      -0.500900
     16 C13         -1.6060     3.4820     0.9840 c3         1 P52      -0.063400
     17 C14         -0.6030     4.1430     1.9710 c3         1 P52      -0.075700
     18 C15         -0.8600     5.6640     2.0740 c3         1 P52      -0.082600
     19 C16         -0.6240     3.4950     3.3770 c3         1 P52      -0.082600
     20 C17         -4.5940    -0.1400     0.1010 c3         1 P52       0.050700
     21 N3          -2.5970    -1.3360    -3.8800 na         1 P52      -0.221700
     22 P1           1.3680     0.9460     0.7320 p5         1 P52       1.346000
     23 C18         -5.6030    -0.2250     1.2870 c          1 P52       0.600100
     24 C19         -4.3940    -1.5210    -0.5800 c3         1 P52      -0.012200
     25 C20         -3.4500    -1.5080    -1.7550 cc         1 P52      -0.143400
     26 C21         -3.7590    -1.2090    -3.0790 cd         1 P52      -0.160100
     27 C22         -2.0510    -1.8330    -1.7420 ca         1 P52      -0.094800
     28 C23         -1.5860    -1.7260    -3.0230 ca         1 P52      -0.043200
     29 C24         -1.2180    -2.2220    -0.6830 ca         1 P52      -0.067000
     30 C25         -0.2500    -2.0080    -3.3430 ca         1 P52      -0.128000
     31 C26          0.1300    -2.5170    -0.9760 ca         1 P52      -0.126000
     32 C27          0.6130    -2.4110    -2.3020 ca         1 P52      -0.083000
     33 O4          -5.3170     0.0430     2.4450 o          1 P52      -0.599100
     34 N4          -6.8610    -0.6320     0.9910 nt         1 P52      -0.608000
     35 H2           3.2050    -2.1210     0.1770 hc         1 P52       0.064700
     36 H3           3.3260    -1.1530     1.6360 hc         1 P52       0.064700
     37 H4           5.5890    -0.6720     2.6780 ha         1 P52       0.117500
     38 H5           7.8300    -1.6360     3.1570 ha         1 P52       0.097500
     39 H6           8.7260    -3.4820     1.7410 ha         1 P52       0.094000
     40 H7           7.3740    -4.3620    -0.1590 ha         1 P52       0.097500
     41 H8           1.9760     1.7340    -2.2680 hn         1 P52       0.384500
     42 H9           3.2630     2.2920    -1.4690 hn         1 P52       0.384500
     43 H11          5.1320    -3.4020    -0.6450 ha         1 P52       0.117500
     44 H12          4.4470     0.6760     0.3900 hc         1 P52       0.039200
     45 H13          4.5600    -0.3380    -1.0410 hc         1 P52       0.039200
     46 H14          2.0250    -0.3840    -1.1460 h1         1 P52       0.049700
     47 H15         -0.2330     1.0390    -0.9960 hc         1 P52       0.051700
     48 H16          0.3330     2.6630    -0.6230 hc         1 P52       0.051700
     49 H17         -1.3030     1.4190     1.5640 hc         1 P52       0.082700
     50 H18         -2.9610     0.1900     1.4640 hn         1 P52       0.332500
     51 H19         -1.6170     4.0590     0.0510 hc         1 P52       0.033700
     52 H20         -2.6130     3.5790     1.4080 hc         1 P52       0.033700
     53 H21          0.4070     4.0240     1.5610 hc         1 P52       0.101700
     54 H22         -1.8590     5.8650     2.4800 hc         1 P52       0.025367
     55 H23         -0.1210     6.1400     2.7310 hc         1 P52       0.025367
     56 H24         -0.7880     6.1390     1.0880 hc         1 P52       0.025367
     57 H25          0.0660     4.0160     4.0520 hc         1 P52       0.025367
     58 H26         -1.6290     3.5430     3.8140 hc         1 P52       0.025367
     59 H27         -0.3150     2.4450     3.3400 hc         1 P52       0.025367
     60 H28         -5.0510     0.5320    -0.6360 h1         1 P52       0.053700
     61 H29         -2.5230    -1.1790    -4.8810 hn         1 P52       0.345000
     62 H30         -4.0390    -2.2370     0.1700 hc         1 P52       0.052200
     63 H31         -5.3660    -1.9000    -0.9190 hc         1 P52       0.052200
     64 H32         -4.7150    -0.9190    -3.5060 h4         1 P52       0.204000
     65 H33         -1.5960    -2.3010     0.3330 ha         1 P52       0.118000
     66 H34          0.1110    -1.9230    -4.3650 ha         1 P52       0.107000
     67 H35          0.8000    -2.8240    -0.1770 ha         1 P52       0.115000
     68 H36          1.6540    -2.6380    -2.5190 ha         1 P52       0.108000
     69 H37         -7.1140    -0.8500     0.0380 hn         1 P52       0.306000
     70 H38         -7.5430    -0.7020     1.7310 hn         1 P52       0.306000
     71 O3          -2.9770     1.8670    -1.2070 o          1 P52      -0.630100
     72 C1           3.8300    -1.3810     0.6900 c3         1 P52      -0.050100
@<TRIPOS>BOND
     1     1    22 1   
     2     2    22 1   
     3     3     4 ar  
     4     3     9 ar  
     5     3    72 1   
     6     4     5 ar  
     7     4    37 1   
     8     5     6 ar  
     9     5    38 1   
    10     6     7 ar  
    11     6    39 1   
    12     7     9 ar  
    13     7    40 1   
    14     8    11 1   
    15     8    41 1   
    16     8    42 1   
    17     9    43 1   
    18    10    11 1   
    19    10    44 1   
    20    10    45 1   
    21    10    72 1   
    22    11    22 1   
    23    11    46 1   
    24    12    14 1   
    25    12    15 1   
    26    12    71 2   
    27    13    14 1   
    28    13    22 1   
    29    13    47 1   
    30    13    48 1   
    31    14    16 1   
    32    14    49 1   
    33    15    20 1   
    34    15    50 1   
    35    16    17 1   
    36    16    51 1   
    37    16    52 1   
    38    17    18 1   
    39    17    19 1   
    40    17    53 1   
    41    18    54 1   
    42    18    55 1   
    43    18    56 1   
    44    19    57 1   
    45    19    58 1   
    46    19    59 1   
    47    20    23 1   
    48    20    24 1   
    49    20    60 1   
    50    21    26 1   
    51    21    28 1   
    52    21    61 1   
    53    23    33 2   
    54    23    34 1   
    55    24    25 1   
    56    24    62 1   
    57    24    63 1   
    58    25    26 2   
    59    25    27 1   
    60    26    64 1   
    61    27    28 ar  
    62    27    29 ar  
    63    28    30 ar  
    64    29    31 ar  
    65    29    65 1   
    66    30    32 ar  
    67    30    66 1   
    68    31    32 ar  
    69    31    67 1   
    70    32    68 1   
    71    34    69 1   
    72    34    70 1   
    73    35    72 1   
    74    36    72 1   
@<TRIPOS>SUBSTRUCTURE
     1 P52         1 TEMP              0 ****  ****    0 ROOT
