@<TRIPOS>MOLECULE
P52
   72    74     1     0     0
SMALL
abcg2


@<TRIPOS>ATOM
      1 O1           2.5570     2.1870     0.9330 o          1 P52      -0.810500
      2 O2           1.7180    -0.1750     0.1630 o          1 P52      -0.810500
      3 C2           6.1100    -0.7060    -0.8830 ca         1 P52      -0.047300
      4 C3           6.5690    -0.7810     0.4310 ca         1 P52      -0.109000
      5 C4           7.9080    -1.0230     0.7100 ca         1 P52      -0.120000
      6 C5           8.8160    -1.1950    -0.3280 ca         1 P52      -0.134000
      7 C6           8.3720    -1.1230    -1.6420 ca         1 P52      -0.120000
      8 N1           2.9860     2.8880    -2.1410 n8         1 P52      -1.000200
      9 C7           7.0320    -0.8800    -1.9140 ca         1 P52      -0.109000
     10 C8           4.4460     1.1000    -1.3830 c3         1 P52      -0.038400
     11 C9           2.9960     1.5060    -1.6530 c3         1 P52      -0.185500
     12 C10         -2.1030     1.3120    -0.8860 c          1 P52       0.606100
     13 C11          0.3220     1.9930    -0.7220 c3         1 P52      -0.421400
     14 C12         -0.9080     1.4890     0.0380 c3         1 P52      -0.086700
     15 N2          -3.0010     0.4030    -0.4630 ns         1 P52      -0.500900
     16 C13         -1.3650     2.4270     1.1710 c3         1 P52      -0.063400
     17 C14         -0.4250     2.5460     2.3700 c3         1 P52      -0.075700
     18 C15         -1.0040     3.5470     3.3650 c3         1 P52      -0.082600
     19 C16         -0.1820     1.1980     3.0410 c3         1 P52      -0.082600
     20 C17         -4.2750     0.2270    -1.1010 c3         1 P52       0.050700
     21 N3          -3.7530    -4.1780    -0.5050 na         1 P52      -0.221700
     22 P1           1.9390     1.3000    -0.1350 p5         1 P52       1.346000
     23 C18         -5.0260     1.5580    -1.1780 c          1 P52       0.600100
     24 C19         -5.1350    -0.7640    -0.3000 c3         1 P52      -0.012200
     25 C20         -4.4830    -2.0960    -0.1190 cc         1 P52      -0.143400
     26 C21         -4.5100    -3.1510    -0.9890 cd         1 P52      -0.160100
     27 C22         -3.6550    -2.5070     0.9770 ca         1 P52      -0.094800
     28 C23         -3.2130    -3.8200     0.6940 ca         1 P52      -0.043200
     29 C24         -3.2460    -1.8960     2.1690 ca         1 P52      -0.067000
     30 C25         -2.3770    -4.5230     1.5600 ca         1 P52      -0.128000
     31 C26         -2.4120    -2.5870     3.0260 ca         1 P52      -0.126000
     32 C27         -1.9820    -3.8890     2.7220 ca         1 P52      -0.083000
     33 O4          -5.0040     2.3580    -0.2570 o          1 P52      -0.599100
     34 N4          -5.7600     1.7160    -2.2870 nt         1 P52      -0.608000
     35 H2           4.3470    -0.9360    -2.0700 hc         1 P52       0.064700
     36 H3           4.0410    -0.7540    -0.3550 hc         1 P52       0.064700
     37 H4           5.8680    -0.6510     1.2470 ha         1 P52       0.117500
     38 H5           8.2420    -1.0810     1.7380 ha         1 P52       0.097500
     39 H6           9.8600    -1.3850    -0.1130 ha         1 P52       0.094000
     40 H7           9.0710    -1.2590    -2.4580 ha         1 P52       0.097500
     41 H8           2.0530     3.1420    -2.4420 hn         1 P52       0.384500
     42 H9           3.1980     3.5080    -1.3670 hn         1 P52       0.384500
     43 H11          6.6950    -0.8280    -2.9430 ha         1 P52       0.117500
     44 H12          4.8110     1.6470    -0.5080 hc         1 P52       0.039200
     45 H13          5.0530     1.4350    -2.2300 hc         1 P52       0.039200
     46 H14          2.5970     0.8700    -2.4520 h1         1 P52       0.049700
     47 H15          0.2360     1.6980    -1.7720 hc         1 P52       0.051700
     48 H16          0.3530     3.0860    -0.7170 hc         1 P52       0.051700
     49 H17         -0.6800     0.5060     0.4640 hc         1 P52       0.082700
     50 H18         -2.8080    -0.0970     0.3890 hn         1 P52       0.332500
     51 H19         -1.5300     3.4230     0.7440 hc         1 P52       0.033700
     52 H20         -2.3430     2.0950     1.5410 hc         1 P52       0.033700
     53 H21          0.5410     2.9200     2.0240 hc         1 P52       0.101700
     54 H22         -1.9690     3.2080     3.7520 hc         1 P52       0.025367
     55 H23         -0.3390     3.6860     4.2190 hc         1 P52       0.025367
     56 H24         -1.1600     4.5250     2.9040 hc         1 P52       0.025367
     57 H25          0.4390     1.3160     3.9310 hc         1 P52       0.025367
     58 H26         -1.1220     0.7360     3.3570 hc         1 P52       0.025367
     59 H27          0.3330     0.5030     2.3770 hc         1 P52       0.025367
     60 H28         -4.1350    -0.1780    -2.1090 h1         1 P52       0.053700
     61 H29         -3.6350    -5.0690    -0.9590 hn         1 P52       0.345000
     62 H30         -5.3680    -0.3240     0.6750 hc         1 P52       0.052200
     63 H31         -6.0880    -0.8800    -0.8200 hc         1 P52       0.052200
     64 H32         -5.0240    -3.2440    -1.9320 h4         1 P52       0.204000
     65 H33         -3.5850    -0.8980     2.4260 ha         1 P52       0.118000
     66 H34         -2.0470    -5.5280     1.3290 ha         1 P52       0.107000
     67 H35         -2.0850    -2.1220     3.9470 ha         1 P52       0.115000
     68 H36         -1.3300    -4.4070     3.4130 ha         1 P52       0.108000
     69 H37         -5.7080     1.0690    -3.0540 hn         1 P52       0.306000
     70 H38         -6.3310     2.5360    -2.4120 hn         1 P52       0.306000
     71 O3          -2.2800     1.9550    -1.9120 o          1 P52      -0.630100
     72 C1           4.6680    -0.3990    -1.1730 c3         1 P52      -0.050100
@<TRIPOS>BOND
     1     1    22 1   
     2     2    22 1   
     3     3     4 ar  
     4     3     9 ar  
     5     3    72 1   
     6     4     5 ar  
     7     4    37 1   
     8     5     6 ar  
     9     5    38 1   
    10     6     7 ar  
    11     6    39 1   
    12     7     9 ar  
    13     7    40 1   
    14     8    11 1   
    15     8    41 1   
    16     8    42 1   
    17     9    43 1   
    18    10    11 1   
    19    10    44 1   
    20    10    45 1   
    21    10    72 1   
    22    11    22 1   
    23    11    46 1   
    24    12    14 1   
    25    12    15 1   
    26    12    71 2   
    27    13    14 1   
    28    13    22 1   
    29    13    47 1   
    30    13    48 1   
    31    14    16 1   
    32    14    49 1   
    33    15    20 1   
    34    15    50 1   
    35    16    17 1   
    36    16    51 1   
    37    16    52 1   
    38    17    18 1   
    39    17    19 1   
    40    17    53 1   
    41    18    54 1   
    42    18    55 1   
    43    18    56 1   
    44    19    57 1   
    45    19    58 1   
    46    19    59 1   
    47    20    23 1   
    48    20    24 1   
    49    20    60 1   
    50    21    26 1   
    51    21    28 1   
    52    21    61 1   
    53    23    33 2   
    54    23    34 1   
    55    24    25 1   
    56    24    62 1   
    57    24    63 1   
    58    25    26 2   
    59    25    27 1   
    60    26    64 1   
    61    27    28 ar  
    62    27    29 ar  
    63    28    30 ar  
    64    29    31 ar  
    65    29    65 1   
    66    30    32 ar  
    67    30    66 1   
    68    31    32 ar  
    69    31    67 1   
    70    32    68 1   
    71    34    69 1   
    72    34    70 1   
    73    35    72 1   
    74    36    72 1   
@<TRIPOS>SUBSTRUCTURE
     1 P52         1 TEMP              0 ****  ****    0 ROOT
