@<TRIPOS>MOLECULE
P55
   46    49     1     0     0
SMALL
No Charge or Current Charge


@<TRIPOS>ATOM
      1 N01         -3.5310    -1.7400     0.0650 nc         1 P55      -0.605100
      2 C02         -3.3020    -3.0530    -0.0150 cd         1 P55       0.465500
      3 C03         -1.9180    -3.3890    -0.0660 cd         1 P55      -0.266300
      4 C04         -1.2490    -2.2030    -0.0150 cc         1 P55       0.263500
      5 N05         -2.2270    -1.2740     0.0650 na         1 P55      -0.174600
      6 N06          0.0830    -1.9830    -0.0440 nc         1 P55      -0.282000
      7 C07          0.3870    -0.6860     0.0070 cd         1 P55       0.463900
      8 N08         -0.5290     0.3690     0.0920 nd         1 P55      -0.352000
      9 C09         -1.8230     0.0560     0.1350 cc         1 P55       0.620400
     10 N10         -2.7980     1.0110     0.2030 nu         1 P55      -0.927900
     11 C11         -2.7950     2.4030     0.1200 ca         1 P55       0.291000
     12 C12         -3.8500     3.0490    -0.5480 ca         1 P55      -0.126500
     13 C13         -3.8830     4.4520    -0.6440 ca         1 P55      -0.090000
     14 C14         -2.8590     5.2180    -0.0610 ca         1 P55      -0.118000
     15 C15         -1.8080     4.5810     0.6190 ca         1 P55      -0.090000
     16 C16         -1.7790     3.1770     0.7120 ca         1 P55      -0.126500
     17 N17          1.7470    -0.3230    -0.0200 nh         1 P55      -0.751300
     18 C18          2.1870     1.1020    -0.2350 c6         1 P55       0.219800
     19 C19          3.5910     1.4020     0.3770 c6         1 P55       0.144300
     20 N20          4.6460     0.4410    -0.0670 n3         1 P55      -0.721600
     21 C21          4.2110    -0.9530     0.2650 c6         1 P55       0.144300
     22 C22          2.8230    -1.3250    -0.3470 c6         1 P55       0.219800
     23 C23          5.9830     0.7960     0.4690 c3         1 P55       0.169800
     24 C24          7.1470    -0.0300    -0.1120 c3         1 P55      -0.091100
     25 C25         -1.3580    -4.6810    -0.1570 ch         1 P55       0.350700
     26 N26         -0.9220    -5.7610    -0.2320 n1         1 P55      -0.487000
     27 H02         -4.1450    -3.7330    -0.0360 h4         1 P55       0.055800
     28 HN10        -3.7000     0.5560     0.0650 hn         1 P55       0.538000
     29 H12         -4.6450     2.4630    -1.0030 ha         1 P55       0.128000
     30 H13         -4.7000     4.9440    -1.1670 ha         1 P55       0.118000
     31 H14         -2.8830     6.3030    -0.1330 ha         1 P55       0.119000
     32 H15         -1.0190     5.1730     1.0790 ha         1 P55       0.118000
     33 H16         -0.9720     2.6990     1.2570 ha         1 P55       0.128000
     34 H181         2.2230     1.3190    -1.3120 h1         1 P55       0.075200
     35 H182         1.4820     1.8190     0.2090 h1         1 P55       0.075200
     36 H191         3.8740     2.4290     0.1040 h1         1 P55       0.043450
     37 H192         3.5020     1.3790     1.4740 h1         1 P55       0.043450
     38 H211         4.9430    -1.6870    -0.1010 h1         1 P55       0.043450
     39 H212         4.1530    -1.0780     1.3560 h1         1 P55       0.043450
     40 H221         2.5660    -2.3300     0.0170 h1         1 P55       0.075200
     41 H222         2.9340    -1.4030    -1.4380 h1         1 P55       0.075200
     42 H231         6.1890     1.8520     0.2460 h1         1 P55       0.030200
     43 H232         5.9900     0.6940     1.5630 h1         1 P55       0.030200
     44 H241         7.0910    -1.0770     0.2050 hc         1 P55       0.039700
     45 H242         7.1390     0.0080    -1.2070 hc         1 P55       0.039700
     46 H243         8.1040     0.3740     0.2370 hc         1 P55       0.039700
@<TRIPOS>BOND
     1     1     2 2   
     2     1     5 1   
     3     2     3 1   
     4     2    27 1   
     5     3     4 2   
     6     3    25 1   
     7     4     5 1   
     8     4     6 1   
     9     5     9 1   
    10     6     7 2   
    11     7     8 1   
    12     7    17 1   
    13     8     9 2   
    14     9    10 1   
    15    10    11 1   
    16    10    28 1   
    17    11    12 ar  
    18    11    16 ar  
    19    12    13 ar  
    20    12    29 1   
    21    13    14 ar  
    22    13    30 1   
    23    14    15 ar  
    24    14    31 1   
    25    15    16 ar  
    26    15    32 1   
    27    16    33 1   
    28    17    18 1   
    29    17    22 1   
    30    18    19 1   
    31    18    34 1   
    32    18    35 1   
    33    19    20 1   
    34    19    36 1   
    35    19    37 1   
    36    20    21 1   
    37    20    23 1   
    38    21    22 1   
    39    21    38 1   
    40    21    39 1   
    41    22    40 1   
    42    22    41 1   
    43    23    24 1   
    44    23    42 1   
    45    23    43 1   
    46    24    44 1   
    47    24    45 1   
    48    24    46 1   
    49    25    26 3   
@<TRIPOS>SUBSTRUCTURE
     1 P55         1 TEMP              0 ****  ****    0 ROOT
