@<TRIPOS>MOLECULE
P55
   46    49     1     0     0
SMALL
bcc


@<TRIPOS>ATOM
      1 N01         -3.2680    -1.7380     0.3730 nc         1 P55      -0.605100
      2 C02         -3.1160    -3.0350     0.3640 cd         1 P55       0.465500
      3 C03         -1.7790    -3.4250     0.1110 cd         1 P55      -0.266300
      4 C04         -1.0760    -2.2260    -0.0460 cc         1 P55       0.526500
      5 N05         -2.0270    -1.2580     0.1250 na         1 P55      -0.174600
      6 N06          0.1870    -1.9390    -0.3000 nc         1 P55      -0.808000
      7 C07          0.4640    -0.6370    -0.3850 cd         1 P55       0.989900
      8 N08         -0.4380     0.3620    -0.2250 nd         1 P55      -0.878000
      9 C09         -1.6740     0.0560     0.0320 cc         1 P55       0.883400
     10 N10         -2.6520     0.9450     0.2130 nu         1 P55      -0.734300
     11 C11         -2.5630     2.3460     0.1480 ca         1 P55       0.152600
     12 C12         -3.6930     3.0340    -0.2880 ca         1 P55      -0.144500
     13 C13         -3.6890     4.4190    -0.3380 ca         1 P55      -0.108000
     14 C14         -2.5580     5.1300     0.0380 ca         1 P55      -0.136000
     15 C15         -1.4370     4.4410     0.4780 ca         1 P55      -0.108000
     16 C16         -1.4310     3.0540     0.5440 ca         1 P55      -0.144500
     17 N17          1.7210    -0.2700    -0.6560 nh         1 P55      -0.751300
     18 C18          2.1520     1.1090    -0.7820 c6         1 P55       0.219800
     19 C19          3.2950     1.3860     0.1790 c6         1 P55       0.144300
     20 N20          4.3920     0.4670    -0.0470 n3         1 P55      -0.721600
     21 C21          3.9390    -0.8990     0.1320 c6         1 P55       0.144300
     22 C22          2.8010    -1.2240    -0.8220 c6         1 P55       0.219800
     23 C23          5.5400     0.7940     0.7820 c3         1 P55       0.169800
     24 C24          6.8100     0.0730     0.3620 c3         1 P55      -0.091100
     25 C25         -1.2470    -4.7190     0.0240 ch         1 P55       0.261500
     26 N26         -0.8080    -5.7850    -0.0500 n1         1 P55      -0.397800
     27 H02         -3.9580    -3.6870     0.5390 h4         1 P55       0.055800
     28 HN10        -3.5820     0.5570     0.3120 hn         1 P55       0.482800
     29 H12         -4.5750     2.4840    -0.5940 ha         1 P55       0.146000
     30 H13         -4.5740     4.9390    -0.6790 ha         1 P55       0.136000
     31 H14         -2.5520     6.2110    -0.0060 ha         1 P55       0.137000
     32 H15         -0.5520     4.9830     0.7860 ha         1 P55       0.136000
     33 H16         -0.5570     2.5390     0.9110 ha         1 P55       0.146000
     34 H181         2.4890     1.2790    -1.8100 h1         1 P55       0.075200
     35 H182         1.3210     1.7800    -0.5880 h1         1 P55       0.075200
     36 H191         3.6440     2.4080     0.0130 h1         1 P55       0.043450
     37 H192         2.9150     1.3340     1.2140 h1         1 P55       0.043450
     38 H211         4.7550    -1.5940    -0.0750 h1         1 P55       0.043450
     39 H212         3.6090    -1.0860     1.1690 h1         1 P55       0.043450
     40 H221         2.4350    -2.2300    -0.6410 h1         1 P55       0.075200
     41 H222         3.1610    -1.1730    -1.8540 h1         1 P55       0.075200
     42 H231         5.7050     1.8710     0.6970 h1         1 P55       0.030200
     43 H232         5.3380     0.5960     1.8490 h1         1 P55       0.030200
     44 H241         6.7610    -1.0020     0.5390 hc         1 P55       0.039700
     45 H242         7.0130     0.2330    -0.6970 hc         1 P55       0.039700
     46 H243         7.6580     0.4550     0.9310 hc         1 P55       0.039700
@<TRIPOS>BOND
     1     1     2 2   
     2     1     5 1   
     3     2     3 1   
     4     2    27 1   
     5     3     4 2   
     6     3    25 1   
     7     4     5 1   
     8     4     6 1   
     9     5     9 1   
    10     6     7 2   
    11     7     8 1   
    12     7    17 1   
    13     8     9 2   
    14     9    10 1   
    15    10    11 1   
    16    10    28 1   
    17    11    12 ar  
    18    11    16 ar  
    19    12    13 ar  
    20    12    29 1   
    21    13    14 ar  
    22    13    30 1   
    23    14    15 ar  
    24    14    31 1   
    25    15    16 ar  
    26    15    32 1   
    27    16    33 1   
    28    17    18 1   
    29    17    22 1   
    30    18    19 1   
    31    18    34 1   
    32    18    35 1   
    33    19    20 1   
    34    19    36 1   
    35    19    37 1   
    36    20    21 1   
    37    20    23 1   
    38    21    22 1   
    39    21    38 1   
    40    21    39 1   
    41    22    40 1   
    42    22    41 1   
    43    23    24 1   
    44    23    42 1   
    45    23    43 1   
    46    24    44 1   
    47    24    45 1   
    48    24    46 1   
    49    25    26 3   
@<TRIPOS>SUBSTRUCTURE
     1 P55         1 TEMP              0 ****  ****    0 ROOT
