@<TRIPOS>MOLECULE
P57
   36    39     1     0     0
SMALL
abcg2


@<TRIPOS>ATOM
      1 CAA         -3.2490     0.3090     0.7810 ca         1 P57      -0.069000
      2 CAB         -4.4280    -0.2550     0.3370 ca         1 P57      -0.133000
      3 CAC         -4.4280    -1.4390    -0.4200 ca         1 P57      -0.091000
      4 CAD         -3.2480    -2.0760    -0.7540 ca         1 P57      -0.122000
      5 CAE         -2.0600    -1.4990    -0.3100 ca         1 P57      -0.045200
      6 CAF         -2.0390    -0.3200     0.4650 ca         1 P57      -0.083800
      7 CAG         -0.6680    -0.0360     0.7550 cc         1 P57      -0.172400
      8 CAI          0.0770    -1.0230     0.1540 cd         1 P57       0.031700
      9 CAJ          1.5300    -1.1920     0.0730 ca         1 P57      -0.053800
     10 CAK          2.1370    -1.4540    -1.1570 ca         1 P57      -0.094500
     11 CAL          3.5140    -1.5990    -1.2450 ca         1 P57      -0.108500
     12 CAM          4.3030    -1.4820    -0.1090 ca         1 P57      -0.097000
     13 CAN          3.7070    -1.2300     1.1200 ca         1 P57      -0.108500
     14 CAO          2.3300    -1.0910     1.2120 ca         1 P57      -0.094500
     15 CAP         -0.1580     1.1900     1.4350 c3         1 P57       0.153800
     16 CAR          1.5290     2.4990     0.1340 cc         1 P57       0.385400
     17 CAT          0.2800     3.7340    -1.0640 cd         1 P57       0.221900
     18 CAU         -0.5560     2.9950    -0.2770 cc         1 P57      -0.226000
     19 NAH         -0.7650    -1.8880    -0.4910 na         1 P57      -0.209700
     20 NAQ          0.2600     2.2140     0.4900 na         1 P57      -0.164500
     21 NAS          1.5820     3.4170    -0.7980 nd         1 P57      -0.678000
     22 H1          -3.2670     1.2190     1.3690 ha         1 P57       0.113000
     23 H2          -5.3720     0.2190     0.5740 ha         1 P57       0.113000
     24 H3          -5.3700    -1.8590    -0.7470 ha         1 P57       0.113000
     25 H4          -3.2490    -2.9860    -1.3410 ha         1 P57       0.115000
     26 H5           1.5340    -1.5260    -2.0540 ha         1 P57       0.117500
     27 H6           3.9700    -1.7970    -2.2060 ha         1 P57       0.118000
     28 H7           5.3770    -1.5900    -0.1790 ha         1 P57       0.118000
     29 H8           4.3140    -1.1500     2.0110 ha         1 P57       0.118000
     30 H9           1.8750    -0.9240     2.1800 ha         1 P57       0.117500
     31 H10         -0.9270     1.6150     2.0810 h1         1 P57       0.060700
     32 H11          0.6950     0.9830     2.0790 h1         1 P57       0.060700
     33 H13          0.0110     4.4780    -1.7980 h4         1 P57       0.034100
     34 H14         -1.6310     2.9610    -0.1950 h4         1 P57       0.156000
     35 H15         -0.4740    -2.7420    -0.9390 hn         1 P57       0.354000
     36 H12          2.3760     2.0090     0.5920 h5         1 P57       0.051100
@<TRIPOS>BOND
     1     1     2 ar  
     2     1     6 ar  
     3     1    22 1   
     4     2     3 ar  
     5     2    23 1   
     6     3     4 ar  
     7     3    24 1   
     8     4     5 ar  
     9     4    25 1   
    10     5     6 ar  
    11     5    19 1   
    12     6     7 1   
    13     7     8 2   
    14     7    15 1   
    15     8     9 1   
    16     8    19 1   
    17     9    10 ar  
    18     9    14 ar  
    19    10    11 ar  
    20    10    26 1   
    21    11    12 ar  
    22    11    27 1   
    23    12    13 ar  
    24    12    28 1   
    25    13    14 ar  
    26    13    29 1   
    27    14    30 1   
    28    15    20 1   
    29    15    31 1   
    30    15    32 1   
    31    16    20 1   
    32    16    21 2   
    33    16    36 1   
    34    17    18 2   
    35    17    21 1   
    36    17    33 1   
    37    18    20 1   
    38    18    34 1   
    39    19    35 1   
@<TRIPOS>SUBSTRUCTURE
     1 P57         1 TEMP              0 ****  ****    0 ROOT
