@<TRIPOS>MOLECULE
P57
   36    39     1     0     0
SMALL
No Charge or Current Charge


@<TRIPOS>ATOM
      1 CAA         -3.3570     0.1540     0.9580 ca         1 P57      -0.069000
      2 CAB         -4.5810    -0.4130     0.5430 ca         1 P57      -0.133000
      3 CAC         -4.5930    -1.5130    -0.3450 ca         1 P57      -0.091000
      4 CAD         -3.3800    -2.0500    -0.8230 ca         1 P57      -0.122000
      5 CAE         -2.1820    -1.4650    -0.3930 ca         1 P57      -0.045200
      6 CAF         -2.1660    -0.4060     0.4640 ca         1 P57      -0.083800
      7 CAG         -0.7910    -0.0460     0.7010 cc         1 P57      -0.172400
      8 CAI         -0.0190    -0.9460    -0.0620 cd         1 P57       0.031700
      9 CAJ          1.4610    -1.0810    -0.1810 ca         1 P57      -0.053800
     10 CAK          2.0020    -1.8960    -1.2060 ca         1 P57      -0.094500
     11 CAL          3.3910    -2.0500    -1.3600 ca         1 P57      -0.108500
     12 CAM          4.2730    -1.4000    -0.4870 ca         1 P57      -0.097000
     13 CAN          3.7600    -0.6000     0.5440 ca         1 P57      -0.108500
     14 CAO          2.3710    -0.4450     0.6970 ca         1 P57      -0.094500
     15 CAP         -0.3700     1.1450     1.5360 c3         1 P57       0.153800
     16 CAR          1.3550     2.9920     1.2710 cc         1 P57       0.385400
     17 CAT          1.0600     3.5300    -0.7960 cd         1 P57       0.221900
     18 CAU          0.1640     2.5240    -0.5440 cc         1 P57      -0.226000
     19 NAH         -0.9000    -1.8300    -0.7350 na         1 P57      -0.209700
     20 NAQ          0.3590     2.1770     0.7770 na         1 P57      -0.164500
     21 NAS          1.7960     3.8200     0.3340 nd         1 P57      -0.678000
     22 H1          -3.3480     0.9990     1.6410 ha         1 P57       0.113000
     23 H2          -5.5190    -0.0010     0.9090 ha         1 P57       0.113000
     24 H3          -5.5400    -1.9450    -0.6610 ha         1 P57       0.113000
     25 H4          -3.3780    -2.8960    -1.5080 ha         1 P57       0.115000
     26 H5           1.3530    -2.4070    -1.9120 ha         1 P57       0.117500
     27 H6           3.7820    -2.6750    -2.1600 ha         1 P57       0.118000
     28 H7           5.3480    -1.5190    -0.6040 ha         1 P57       0.118000
     29 H8           4.4400    -0.1030     1.2330 ha         1 P57       0.118000
     30 H9           2.0290     0.1520     1.5290 ha         1 P57       0.117500
     31 H10         -1.2580     1.6250     1.9620 h1         1 P57       0.060700
     32 H11          0.2330     0.8100     2.3880 h1         1 P57       0.060700
     33 H13          1.2140     4.0630    -1.7270 h4         1 P57       0.034100
     34 H14         -0.5650     2.0480    -1.1870 h4         1 P57       0.156000
     35 H15         -0.6340    -2.6010    -1.3350 hn         1 P57       0.354000
     36 H12          1.7030     2.9320     2.2960 h5         1 P57       0.051100
@<TRIPOS>BOND
     1     1     2 ar  
     2     1     6 ar  
     3     1    22 1   
     4     2     3 ar  
     5     2    23 1   
     6     3     4 ar  
     7     3    24 1   
     8     4     5 ar  
     9     4    25 1   
    10     5     6 ar  
    11     5    19 1   
    12     6     7 1   
    13     7     8 2   
    14     7    15 1   
    15     8     9 1   
    16     8    19 1   
    17     9    10 ar  
    18     9    14 ar  
    19    10    11 ar  
    20    10    26 1   
    21    11    12 ar  
    22    11    27 1   
    23    12    13 ar  
    24    12    28 1   
    25    13    14 ar  
    26    13    29 1   
    27    14    30 1   
    28    15    20 1   
    29    15    31 1   
    30    15    32 1   
    31    16    20 1   
    32    16    21 2   
    33    16    36 1   
    34    17    18 2   
    35    17    21 1   
    36    17    33 1   
    37    18    20 1   
    38    18    34 1   
    39    19    35 1   
@<TRIPOS>SUBSTRUCTURE
     1 P57         1 TEMP              0 ****  ****    0 ROOT
