@<TRIPOS>MOLECULE
P58
   23    23     1     0     0
SMALL
No Charge or Current Charge


@<TRIPOS>ATOM
      1 CAA         -1.0180     2.0910     0.1150 c3         1 P58       0.058300
      2 SAB         -3.3340     0.3310     0.8090 sh         1 P58      -0.291400
      3 SAC         -2.0600    -1.7440    -0.9120 s          1 P58      -0.590400
      4 CAD          3.7970    -0.2480     0.9510 ca         1 P58      -0.100000
      5 CAE          2.7970    -1.2330     0.8920 ca         1 P58      -0.111500
      6 CAF          3.6270     0.9640     0.2620 ca         1 P58      -0.111500
      7 CAG          1.6270    -1.0050     0.1470 ca         1 P58      -0.094000
      8 CAH          2.4570     1.1930    -0.4840 ca         1 P58      -0.094000
      9 CAI          0.1780     0.4540    -1.3490 c3         1 P58       0.123300
     10 CAJ         -1.9990    -0.1970    -0.2720 cs         1 P58       0.412000
     11 CAK          1.4500     0.2090    -0.5460 ca         1 P58      -0.117300
     12 NAL         -1.0010     0.7400    -0.4970 n          1 P58      -0.284800
     13 HAA         -1.9220     2.6310    -0.1950 h1         1 P58       0.061367
     14 HAAA        -1.0040     2.0040     1.2090 h1         1 P58       0.061367
     15 HAAB        -0.1410     2.6720    -0.1980 h1         1 P58       0.061367
     16 HSAB        -3.9690    -0.8580     0.6920 hs         1 P58       0.259800
     17 HAD          4.7020    -0.4250     1.5280 ha         1 P58       0.115000
     18 HAE          2.9270    -2.1730     1.4250 ha         1 P58       0.115500
     19 HAF          4.4010     1.7280     0.3070 ha         1 P58       0.115500
     20 HAG          0.8570    -1.7730     0.1090 ha         1 P58       0.119500
     21 HAH          2.3350     2.1370    -1.0120 ha         1 P58       0.119500
     22 HAI          0.3320     1.3030    -2.0290 h1         1 P58       0.085200
     23 HAIA        -0.0130    -0.4150    -1.9900 h1         1 P58       0.085200
@<TRIPOS>BOND
     1     1    12 1   
     2     1    13 1   
     3     1    14 1   
     4     1    15 1   
     5     2    10 1   
     6     2    16 1   
     7     3    10 2   
     8     4     5 ar  
     9     4     6 ar  
    10     4    17 1   
    11     5     7 ar  
    12     5    18 1   
    13     6     8 ar  
    14     6    19 1   
    15     7    11 ar  
    16     7    20 1   
    17     8    11 ar  
    18     8    21 1   
    19     9    11 1   
    20     9    12 1   
    21     9    22 1   
    22     9    23 1   
    23    10    12 1   
@<TRIPOS>SUBSTRUCTURE
     1 P58         1 TEMP              0 ****  ****    0 ROOT
