@<TRIPOS>MOLECULE
P58
   23    23     1     0     0
SMALL
abcg2


@<TRIPOS>ATOM
      1 CAA         -1.0140     1.9350     0.2840 c3         1 P58       0.058300
      2 SAB         -3.2320     0.2140     0.7070 sh         1 P58      -0.291400
      3 SAC         -1.9500    -1.6790    -1.2110 s          1 P58      -0.590400
      4 CAD          3.7510    -0.2130     0.9350 ca         1 P58      -0.100000
      5 CAE          2.6540    -1.0610     1.0510 ca         1 P58      -0.111500
      6 CAF          3.6890     0.8750     0.0770 ca         1 P58      -0.111500
      7 CAG          1.5050    -0.8200     0.3150 ca         1 P58      -0.094000
      8 CAH          2.5340     1.1180    -0.6560 ca         1 P58      -0.094000
      9 CAI          0.1890     0.5320    -1.3530 c3         1 P58       0.123300
     10 CAJ         -1.9270    -0.2190    -0.4030 cs         1 P58       0.412000
     11 CAK          1.4350     0.2740    -0.5470 ca         1 P58      -0.117300
     12 NAL         -0.9830     0.7100    -0.5020 n          1 P58      -0.284800
     13 HAA         -1.9270     2.5020     0.0970 h1         1 P58       0.061367
     14 HAAA        -0.9320     1.7290     1.3520 h1         1 P58       0.061367
     15 HAAB        -0.1730     2.5590    -0.0020 h1         1 P58       0.061367
     16 HSAB        -3.9230    -0.9120     0.5210 hs         1 P58       0.259800
     17 HAD          4.6480    -0.4030     1.5100 ha         1 P58       0.115000
     18 HAE          2.6970    -1.9140     1.7160 ha         1 P58       0.115500
     19 HAF          4.5380     1.5390    -0.0200 ha         1 P58       0.115500
     20 HAG          0.6600    -1.4930     0.4030 ha         1 P58       0.119500
     21 HAH          2.4930     1.9720    -1.3220 ha         1 P58       0.119500
     22 HAI          0.3030     1.4350    -1.9550 h1         1 P58       0.085200
     23 HAIA        -0.0090    -0.2940    -2.0330 h1         1 P58       0.085200
@<TRIPOS>BOND
     1     1    12 1   
     2     1    13 1   
     3     1    14 1   
     4     1    15 1   
     5     2    10 1   
     6     2    16 1   
     7     3    10 2   
     8     4     5 ar  
     9     4     6 ar  
    10     4    17 1   
    11     5     7 ar  
    12     5    18 1   
    13     6     8 ar  
    14     6    19 1   
    15     7    11 ar  
    16     7    20 1   
    17     8    11 ar  
    18     8    21 1   
    19     9    11 1   
    20     9    12 1   
    21     9    22 1   
    22     9    23 1   
    23    10    12 1   
@<TRIPOS>SUBSTRUCTURE
     1 P58         1 TEMP              0 ****  ****    0 ROOT
