@<TRIPOS>MOLECULE
P59
   39    42     1     0     0
SMALL
No Charge or Current Charge


@<TRIPOS>ATOM
      1 FAX          0.8050    -0.9560     1.7980 f          1 P59      -0.162000
      2 CAS          0.5920    -1.9520     0.9140 ca         1 P59       0.205000
      3 CAT          0.6210    -3.2730     1.3910 ca         1 P59      -0.152000
      4 CAU          0.4090    -4.3490     0.5150 ca         1 P59      -0.073000
      5 CAV          0.1700    -4.0990    -0.8450 ca         1 P59      -0.126000
      6 CAW          0.1410    -2.7790    -1.3260 ca         1 P59      -0.087000
      7 CAL          0.3480    -1.6870    -0.4550 ca         1 P59      -0.193300
      8 CAH          0.2950    -0.2710    -1.0520 c6         1 P59       0.450200
      9 NAG          1.6470     0.1960    -1.3220 nu         1 P59      -0.932200
     10 CAE          2.3830     0.9290    -0.4170 ca         1 P59       0.319000
     11 CAD          3.7820     0.9530    -0.5000 ca         1 P59      -0.183000
     12 CAC          4.5280     1.7070     0.4210 ca         1 P59      -0.049000
     13 CAB          3.8640     2.4360     1.4210 ca         1 P59      -0.164000
     14 CAA          2.4600     2.4110     1.4980 ca         1 P59      -0.015000
     15 CAF          1.7150     1.6480     0.5720 ca         1 P59      -0.209600
     16 CAJ          0.2170     1.5960     0.6270 c          1 P59       0.601600
     17 OAM         -0.3880     2.2890     1.4390 o          1 P59      -0.529000
     18 NAI         -0.4600     0.7490    -0.2870 n          1 P59      -0.232400
     19 CAK         -1.8900     0.8140    -0.5140 ca         1 P59      -0.024000
     20 CAN         -2.5660     2.0560    -0.4830 ca         1 P59      -0.119500
     21 CAO         -3.9680     2.1220    -0.5590 ca         1 P59      -0.097500
     22 CAP         -4.7240     0.9420    -0.6140 ca         1 P59      -0.121000
     23 CAQ         -4.0760    -0.3000    -0.5720 ca         1 P59      -0.097500
     24 CAR         -2.6740    -0.3640    -0.4970 ca         1 P59      -0.119500
     25 H1           0.8090    -3.4600     2.4450 ha         1 P59       0.137000
     26 H2           0.4320    -5.3710     0.8870 ha         1 P59       0.121000
     27 H3           0.0070    -4.9300    -1.5280 ha         1 P59       0.121000
     28 H4          -0.0460    -2.6070    -2.3850 ha         1 P59       0.108000
     29 H5          -0.2380    -0.3640    -2.0130 h2         1 P59       0.084700
     30 H6           2.1910    -0.3450    -1.9920 hn         1 P59       0.475000
     31 H7           4.2930     0.3900    -1.2750 ha         1 P59       0.114000
     32 H8           5.6140     1.7270     0.3600 ha         1 P59       0.112000
     33 H9           4.4360     3.0230     2.1360 ha         1 P59       0.120000
     34 H10          1.9580     2.9800     2.2790 ha         1 P59       0.135000
     35 H11         -2.0030     2.9850    -0.4350 ha         1 P59       0.123000
     36 H12         -4.4670     3.0880    -0.5660 ha         1 P59       0.113000
     37 H13         -5.8100     0.9920    -0.6690 ha         1 P59       0.113000
     38 H14         -4.6610    -1.2180    -0.5810 ha         1 P59       0.113000
     39 H15         -2.2110    -1.3430    -0.4230 ha         1 P59       0.123000
@<TRIPOS>BOND
     1     1     2 1   
     2     2     3 ar  
     3     2     7 ar  
     4     3     4 ar  
     5     3    25 1   
     6     4     5 ar  
     7     4    26 1   
     8     5     6 ar  
     9     5    27 1   
    10     6     7 ar  
    11     6    28 1   
    12     7     8 1   
    13     8     9 1   
    14     8    18 1   
    15     8    29 1   
    16     9    10 1   
    17     9    30 1   
    18    10    11 ar  
    19    10    15 ar  
    20    11    12 ar  
    21    11    31 1   
    22    12    13 ar  
    23    12    32 1   
    24    13    14 ar  
    25    13    33 1   
    26    14    15 ar  
    27    14    34 1   
    28    15    16 1   
    29    16    17 2   
    30    16    18 1   
    31    18    19 1   
    32    19    20 ar  
    33    19    24 ar  
    34    20    21 ar  
    35    20    35 1   
    36    21    22 ar  
    37    21    36 1   
    38    22    23 ar  
    39    22    37 1   
    40    23    24 ar  
    41    23    38 1   
    42    24    39 1   
@<TRIPOS>SUBSTRUCTURE
     1 P59         1 TEMP              0 ****  ****    0 ROOT
