@<TRIPOS>MOLECULE
P59
   39    42     1     0     0
SMALL
abcg2


@<TRIPOS>ATOM
      1 FAX         -0.3230    -0.9030     1.8200 f          1 P59      -0.162000
      2 CAS          0.1710    -1.8310     0.9820 ca         1 P59       0.205000
      3 CAT          0.4710    -3.0670     1.5330 ca         1 P59      -0.152000
      4 CAU          0.9500    -4.0750     0.7160 ca         1 P59      -0.073000
      5 CAV          1.1190    -3.8390    -0.6420 ca         1 P59      -0.126000
      6 CAW          0.8150    -2.5940    -1.1620 ca         1 P59      -0.087000
      7 CAL          0.3390    -1.5500    -0.3650 ca         1 P59      -0.193300
      8 CAH          0.0820    -0.2210    -1.0810 c6         1 P59       0.450200
      9 NAG          1.3030     0.3450    -1.5990 nu         1 P59      -0.932200
     10 CAE          2.1710     0.8110    -0.6420 ca         1 P59       0.319000
     11 CAD          3.5570     0.8010    -0.8040 ca         1 P59      -0.183000
     12 CAC          4.3680     1.2930     0.2010 ca         1 P59      -0.049000
     13 CAB          3.8220     1.8020     1.3800 ca         1 P59      -0.164000
     14 CAA          2.4490     1.8330     1.5310 ca         1 P59      -0.015000
     15 CAF          1.6140     1.3400     0.5300 ca         1 P59      -0.209600
     16 CAJ          0.1490     1.4970     0.6400 c          1 P59       0.601600
     17 OAM         -0.3670     2.2210     1.4720 o          1 P59      -0.529000
     18 NAI         -0.5780     0.8050    -0.2950 n          1 P59      -0.232400
     19 CAK         -1.9860     0.9210    -0.3690 ca         1 P59      -0.024000
     20 CAN         -2.5900     2.1760    -0.4220 ca         1 P59      -0.119500
     21 CAO         -3.9670     2.2790    -0.5350 ca         1 P59      -0.097500
     22 CAP         -4.7590     1.1390    -0.6100 ca         1 P59      -0.121000
     23 CAQ         -4.1560    -0.1090    -0.5750 ca         1 P59      -0.097500
     24 CAR         -2.7780    -0.2210    -0.4490 ca         1 P59      -0.119500
     25 H1           0.3250    -3.2260     2.5930 ha         1 P59       0.137000
     26 H2           1.1870    -5.0420     1.1390 ha         1 P59       0.121000
     27 H3           1.4830    -4.6220    -1.2940 ha         1 P59       0.121000
     28 H4           0.9430    -2.4270    -2.2260 ha         1 P59       0.108000
     29 H5          -0.5590    -0.4380    -1.9370 h2         1 P59       0.084700
     30 H6           1.7120    -0.1590    -2.3720 hn         1 P59       0.475000
     31 H7           3.9880     0.3930    -1.7100 ha         1 P59       0.114000
     32 H8           5.4420     1.2720     0.0710 ha         1 P59       0.112000
     33 H9           4.4670     2.1750     2.1640 ha         1 P59       0.120000
     34 H10          2.0110     2.2420     2.4320 ha         1 P59       0.135000
     35 H11         -1.9900     3.0750    -0.3930 ha         1 P59       0.123000
     36 H12         -4.4230     3.2590    -0.5820 ha         1 P59       0.113000
     37 H13         -5.8330     1.2250    -0.7040 ha         1 P59       0.113000
     38 H14         -4.7580    -1.0060    -0.6330 ha         1 P59       0.113000
     39 H15         -2.3350    -1.2080    -0.4110 ha         1 P59       0.123000
@<TRIPOS>BOND
     1     1     2 1   
     2     2     3 ar  
     3     2     7 ar  
     4     3     4 ar  
     5     3    25 1   
     6     4     5 ar  
     7     4    26 1   
     8     5     6 ar  
     9     5    27 1   
    10     6     7 ar  
    11     6    28 1   
    12     7     8 1   
    13     8     9 1   
    14     8    18 1   
    15     8    29 1   
    16     9    10 1   
    17     9    30 1   
    18    10    11 ar  
    19    10    15 ar  
    20    11    12 ar  
    21    11    31 1   
    22    12    13 ar  
    23    12    32 1   
    24    13    14 ar  
    25    13    33 1   
    26    14    15 ar  
    27    14    34 1   
    28    15    16 1   
    29    16    17 2   
    30    16    18 1   
    31    18    19 1   
    32    19    20 ar  
    33    19    24 ar  
    34    20    21 ar  
    35    20    35 1   
    36    21    22 ar  
    37    21    36 1   
    38    22    23 ar  
    39    22    37 1   
    40    23    24 ar  
    41    23    38 1   
    42    24    39 1   
@<TRIPOS>SUBSTRUCTURE
     1 P59         1 TEMP              0 ****  ****    0 ROOT
