@<TRIPOS>MOLECULE
P5A
   51    54     1     0     0
SMALL
bcc


@<TRIPOS>ATOM
      1 HB           2.7850    -0.2620    -2.6770 c5         1 P5A      -0.152000
      2 HG           4.0080    -0.9630    -2.0560 c5         1 P5A      -0.157000
      3 H            0.3320    -0.8280    -2.3890 c          1 P5A       0.355000
      4 H           -0.2070    -1.9000    -2.4660 o          1 P5A      -0.255000
      5 H            2.1010    -1.6980    -0.9400 n7         1 P5A      -0.268000
      6 HD           3.5120    -1.4450    -0.6950 c5         1 P5A      -0.082000
      7 HA           1.6360    -0.5520    -1.6790 c5         1 P5A      -0.061000
      8 H3S         -0.1860     0.3060    -2.9940 n7         1 P5A      -0.874000
      9 H           -1.6300     0.3520    -3.8080 s6         1 P5A       2.684000
     10 H1S         -1.7300    -0.7390    -4.7350 o          1 P5A      -0.888000
     11 H2S         -1.7660     1.7200    -4.2440 o          1 P5A      -0.888000
     12 H5          -2.7010     0.0210    -2.6880 os         1 P5A      -0.670000
     13 H5          -2.9050     0.9470    -1.5980 c3         1 P5A       0.037000
     14 H4          -2.7630     0.2120    -0.2920 c5         1 P5A       0.016000
     15 H4          -1.4100    -0.1580    -0.0920 os         1 P5A      -0.263000
     16 H1          -1.0680    -0.1100     1.2720 c5         1 P5A       0.163000
     17 H9           0.1070     0.7140     1.4290 na         1 P5A      -0.191000
     18 H9           1.3020     0.3100     1.9570 ca         1 P5A       0.070000
     19 H3           1.6260    -0.8900     2.4330 nb         1 P5A      -0.224000
     20 H2           2.8730    -0.9190     2.8750 ca         1 P5A       0.053000
     21 H1           3.7670     0.0660     2.8900 nb         1 P5A      -0.299000
     22 H6           3.4290     1.2630     2.3970 ca         1 P5A       0.262000
     23 H6           4.3260     2.2480     2.4000 nv         1 P5A      -0.347000
     24 H7           2.1250     1.4210     1.8880 ca         1 P5A      -0.247000
     25 H7           1.4650     2.4820     1.3240 n2         1 P5A      -0.117000
     26 H8           0.2770     2.0250     1.0670 cc         1 P5A      -0.061000
     27 H10         -2.3010     0.4050     2.0250 c5         1 P5A      -0.031000
     28 H2          -2.9900    -0.7110     2.5150 oh         1 P5A      -0.302000
     29 H3          -3.1030     1.0910     0.9090 c5         1 P5A      -0.044000
     30 H3          -4.4820     1.1020     1.1300 oh         1 P5A      -0.305000
     31 HB1          2.5650    -0.6640    -3.6660 ha         1 P5A       0.090500
     32 HB2          2.9320     0.8100    -2.7910 ha         1 P5A       0.090500
     33 HG1          4.3140    -1.8100    -2.6710 ha         1 P5A       0.091000
     34 HG2          4.8640    -0.2970    -1.9640 ha         1 P5A       0.091000
     35 HT1          1.5860    -1.8430    -0.0810 ha         1 P5A       0.176000
     36 HD1          4.0160    -2.3480    -0.3480 ha         1 P5A       0.077500
     37 HD2          3.6770    -0.6620     0.0600 ha         1 P5A       0.077500
     38 HA           1.4960     0.3400    -1.0440 ha         1 P5A       0.075000
     39 H3S          0.2850     1.1980    -2.8940 ha         1 P5A       0.255000
     40 H1'1        -3.9150     1.3440    -1.6980 ha         1 P5A       0.103500
     41 H1'2        -2.2030     1.7830    -1.6430 ha         1 P5A       0.103500
     42 H4          -3.4100    -0.6740    -0.2930 ha         1 P5A       0.150000
     43 H1          -0.7890    -1.1000     1.6410 ha         1 P5A       0.178000
     44 H2           3.2140    -1.8650     3.2790 ha         1 P5A       0.191000
     45 H61          5.2310     2.1080     2.8150 ha         1 P5A       0.250000
     46 H62          4.0900     3.1670     2.0700 ha         1 P5A       0.250000
     47 H8          -0.5150     2.6010     0.6120 ha         1 P5A       0.190000
     48 H5          -2.0250     1.0970     2.8290 ha         1 P5A       0.110000
     49 HO'2        -3.9270    -0.4830     2.5610 ha         1 P5A       0.229000
     50 H3          -2.7170     2.1060     0.7510 ha         1 P5A       0.085000
     51 H3T         -4.7090     1.8780     1.6540 ha         1 P5A       0.221000
@<TRIPOS>BOND
     1     1     2 1   
     2     1     7 1   
     3     1    31 1   
     4     1    32 1   
     5     2     6 1   
     6     2    33 1   
     7     2    34 1   
     8     3     4 2   
     9     3     7 1   
    10     3     8 1   
    11     5     6 1   
    12     5     7 1   
    13     5    35 1   
    14     6    36 1   
    15     6    37 1   
    16     7    38 1   
    17     8     9 1   
    18     8    39 1   
    19     9    10 2   
    20     9    11 2   
    21     9    12 1   
    22    12    13 1   
    23    13    14 1   
    24    13    40 1   
    25    13    41 1   
    26    14    15 1   
    27    14    29 1   
    28    14    42 1   
    29    15    16 1   
    30    16    17 1   
    31    16    27 1   
    32    16    43 1   
    33    17    18 1   
    34    17    26 1   
    35    18    19 ar  
    36    18    24 ar  
    37    19    20 ar  
    38    20    21 ar  
    39    20    44 1   
    40    21    22 ar  
    41    22    23 1   
    42    22    24 ar  
    43    23    45 1   
    44    23    46 1   
    45    24    25 1   
    46    25    26 2   
    47    26    47 1   
    48    27    28 1   
    49    27    29 1   
    50    27    48 1   
    51    28    49 1   
    52    29    30 1   
    53    29    50 1   
    54    30    51 1   
@<TRIPOS>SUBSTRUCTURE
     1 P5A         1 TEMP              0 ****  ****    0 ROOT
