@<TRIPOS>MOLECULE
P5A
   51    54     1     0     0
SMALL
No Charge or Current Charge


@<TRIPOS>ATOM
      1 CB           2.8180    -0.8680    -3.1740 c5         1 P5A      -0.073400
      2 CG           3.8640    -0.7560    -2.0150 c5         1 P5A      -0.078400
      3 C            0.2360    -0.8450    -3.3030 c          1 P5A       0.644100
      4 O           -0.0950    -2.0000    -3.5320 o          1 P5A      -0.494100
      5 N            1.6550    -0.9130    -1.1290 n7         1 P5A      -0.844400
      6 CD           3.0090    -0.4870    -0.7400 c5         1 P5A       0.154800
      7 CA           1.5120    -0.3630    -2.5060 c5         1 P5A       0.086500
      8 N3S         -0.4850     0.2450    -3.6830 ns         1 P5A      -0.628300
      9 S           -2.0910     0.2590    -4.0820 s6         1 P5A       1.442500
     10 O1S         -2.3610    -0.8050    -5.0540 o          1 P5A      -0.538000
     11 O2S         -2.4710     1.6500    -4.3440 o          1 P5A      -0.538000
     12 O5          -2.6720    -0.1960    -2.6170 os         1 P5A      -0.555700
     13 C5          -2.7870     0.8330    -1.6120 c3         1 P5A       0.210600
     14 C4          -2.5340     0.1830    -0.2310 c5         1 P5A       0.150300
     15 O4          -1.1190    -0.0590    -0.0440 os         1 P5A      -0.453000
     16 C1          -0.8610    -0.1940     1.3750 c5         1 P5A       0.307300
     17 N9           0.3470     0.5650     1.6790 na         1 P5A      -0.303300
     18 C9           1.4690     0.1480     2.3450 ca         1 P5A       0.133500
     19 N3           1.7700    -1.0400     2.9050 nb         1 P5A      -0.224000
     20 C2           2.9880    -1.1280     3.4900 ca         1 P5A       0.189900
     21 N1           3.9210    -0.1490     3.5640 nb         1 P5A      -0.299000
     22 C6           3.5920     1.0200     2.9950 ca         1 P5A       0.454900
     23 N6           4.5260     2.0050     3.0690 nv         1 P5A      -1.059900
     24 C7           2.3430     1.2050     2.3660 ca         1 P5A      -0.107600
     25 N7           1.8320     2.3320     1.7330 nc         1 P5A      -0.544100
     26 C8           0.6240     1.8980     1.3280 cd         1 P5A       0.394700
     27 C10         -2.1700     0.2740     2.1150 c5         1 P5A       0.103300
     28 O2          -3.0180    -0.8150     2.5110 oh         1 P5A      -0.697000
     29 C3          -2.8810     1.0820     0.9900 c5         1 P5A       0.090300
     30 O3          -4.2930     1.1970     1.2410 oh         1 P5A      -0.700000
     31 HB1          2.7210    -1.9090    -3.5060 hc         1 P5A       0.051200
     32 HB2          3.0930    -0.2710    -4.0520 hc         1 P5A       0.051200
     33 HG1          4.4430    -1.6820    -1.9190 hc         1 P5A       0.051700
     34 HG2          4.5830     0.0540    -2.1850 hc         1 P5A       0.051700
     35 HT1          0.9420    -0.5110    -0.5010 hn         1 P5A       0.436000
     36 HD1          3.3770    -1.0330     0.1390 h1         1 P5A       0.038200
     37 HD2          3.0120     0.5860    -0.4970 h1         1 P5A       0.038200
     38 HA           1.5140     0.7360    -2.4630 h1         1 P5A       0.035700
     39 H3S         -0.1700     1.1640    -3.4320 hn         1 P5A       0.341500
     40 H1'1        -3.7890     1.2810    -1.6340 h1         1 P5A       0.064200
     41 H1'2        -2.0490     1.6370    -1.7440 h1         1 P5A       0.064200
     42 H4          -3.0750    -0.7720    -0.1870 h1         1 P5A       0.110700
     43 H1          -0.6470    -1.2420     1.6270 h2         1 P5A       0.138700
     44 H2           3.2430    -2.0820     3.9460 h5         1 P5A       0.054100
     45 H61          5.2540     1.9190     3.7720 hn         1 P5A       0.510000
     46 H62          4.2170     2.9480     2.8440 hn         1 P5A       0.510000
     47 H8          -0.0970     2.4900     0.7760 h5         1 P5A       0.060800
     48 H5          -1.9340     0.9110     2.9790 h1         1 P5A       0.070700
     49 HO'2        -3.9270    -0.4930     2.2840 ho         1 P5A       0.529000
     50 H3          -2.4260     2.0760     0.8740 h1         1 P5A       0.045700
     51 H3T         -4.4660     2.1100     1.5770 ho         1 P5A       0.521000
@<TRIPOS>BOND
     1     1     2 1   
     2     1     7 1   
     3     1    31 1   
     4     1    32 1   
     5     2     6 1   
     6     2    33 1   
     7     2    34 1   
     8     3     4 2   
     9     3     7 1   
    10     3     8 1   
    11     5     6 1   
    12     5     7 1   
    13     5    35 1   
    14     6    36 1   
    15     6    37 1   
    16     7    38 1   
    17     8     9 1   
    18     8    39 1   
    19     9    10 2   
    20     9    11 2   
    21     9    12 1   
    22    12    13 1   
    23    13    14 1   
    24    13    40 1   
    25    13    41 1   
    26    14    15 1   
    27    14    29 1   
    28    14    42 1   
    29    15    16 1   
    30    16    17 1   
    31    16    27 1   
    32    16    43 1   
    33    17    18 1   
    34    17    26 1   
    35    18    19 ar  
    36    18    24 ar  
    37    19    20 ar  
    38    20    21 ar  
    39    20    44 1   
    40    21    22 ar  
    41    22    23 1   
    42    22    24 ar  
    43    23    45 1   
    44    23    46 1   
    45    24    25 1   
    46    25    26 2   
    47    26    47 1   
    48    27    28 1   
    49    27    29 1   
    50    27    48 1   
    51    28    49 1   
    52    29    30 1   
    53    29    50 1   
    54    30    51 1   
@<TRIPOS>SUBSTRUCTURE
     1 P5A         1 TEMP              0 ****  ****    0 ROOT
