@<TRIPOS>MOLECULE
P5B
   72    74     1     0     0
SMALL
No Charge or Current Charge


@<TRIPOS>ATOM
      1 C14         36.6640     7.6040    10.6670 c          1 P5B       0.573100
      2 O1          36.5690     8.7120    11.1830 o          1 P5B      -0.612100
      3 N5          35.7720     7.1610     9.7090 ns         1 P5B      -0.477900
      4 C15         34.6260     7.9390     9.1860 c3         1 P5B       0.042700
      5 C18         35.0030     8.6900     7.8780 c3         1 P5B      -0.081400
      6 C19         36.1620     9.7100     8.0260 c3         1 P5B      -0.157400
      7 C20         33.4060     6.9970     8.9630 c          1 P5B       0.581100
      8 O5          33.5050     5.7770     8.9160 o          1 P5B      -0.575100
      9 N6          32.1920     7.6370     8.8210 ns         1 P5B      -0.492900
     10 C21         30.9100     6.9570     8.6340 c3         1 P5B       0.147300
     11 C16         30.4440     5.6620    10.7680 ca         1 P5B      -0.091500
     12 C17         29.7730     5.4950    11.9920 ca         1 P5B      -0.092000
     13 C22         28.8340     6.4540    12.4420 ca         1 P5B      -0.170900
     14 C23         28.5650     7.5670    11.6090 ca         1 P5B      -0.092000
     15 C24         29.2360     7.7300    10.3850 ca         1 P5B      -0.091500
     16 C25         30.1810     6.7800     9.9580 ca         1 P5B      -0.107300
     17 N1          27.9060     5.1060    14.2480 n2         1 P5B      -0.834100
     18 C2          36.3890    10.4920     6.7280 c          1 P5B       0.595100
     19 O2          37.0400    10.0600     5.7920 o          1 P5B      -0.602100
     20 N3          35.8200    11.7130     6.6610 nt         1 P5B      -0.608000
     21 C1          39.1550     7.0780    10.5520 c3         1 P5B       0.013800
     22 N4          37.8480     6.3440    12.5480 n7         1 P5B      -0.853300
     23 C5          37.7810     6.5860    11.0720 c3         1 P5B       0.137500
     24 O4          35.3760     6.0140    12.8870 o          1 P5B      -0.541500
     25 O3          37.0340     5.4350    14.7260 o          1 P5B      -0.541500
     26 C9          36.8800     3.8020    12.6270 c3         1 P5B      -0.300400
     27 C8          38.3030     3.2200    12.8210 c3         1 P5B      -0.062100
     28 N2          27.6710     7.3360    14.4070 nv         1 P5B      -1.011200
     29 C10         43.0600     4.6390    13.3230 ca         1 P5B      -0.088000
     30 C7          42.8850     4.0960    12.0310 ca         1 P5B      -0.131000
     31 C3          41.8950     4.6580    11.2150 ca         1 P5B      -0.047200
     32 C4          41.1170     5.6970    11.6410 ca         1 P5B      -0.086800
     33 C11         41.2610     6.2600    12.9160 ca         1 P5B      -0.055000
     34 C6          42.2510     5.7160    13.7640 ca         1 P5B      -0.139000
     35 N7          41.5260     4.3100     9.9290 na         1 P5B      -0.229700
     36 C13         40.4720     5.1390     9.4880 cc         1 P5B      -0.166100
     37 C12         40.2140     5.9990    10.5510 cd         1 P5B      -0.139400
     38 HN5         35.8890     6.2110     9.3740 hn         1 P5B       0.331500
     39 H15         34.3230     8.6740     9.9420 h1         1 P5B       0.061700
     40 H181        34.1170     9.2210     7.5060 hc         1 P5B       0.078700
     41 H182        35.2670     7.9550     7.1060 hc         1 P5B       0.078700
     42 H191        37.0840     9.1740     8.2770 hc         1 P5B       0.056200
     43 H192        35.8930    10.4050     8.8300 hc         1 P5B       0.056200
     44 HN6         32.1930     8.6480     8.8880 hn         1 P5B       0.314500
     45 H211        31.0700     5.9790     8.1610 h1         1 P5B       0.068200
     46 H212        30.2930     7.5540     7.9480 h1         1 P5B       0.068200
     47 H16         31.1720     4.9180    10.4500 ha         1 P5B       0.123500
     48 H17         30.0050     4.6210    12.5980 ha         1 P5B       0.115500
     49 H23         27.8250     8.3100    11.8960 ha         1 P5B       0.115500
     50 H24         29.0160     8.5970     9.7650 ha         1 P5B       0.123500
     51 HN1         28.2380     4.4000    13.5790 hn         1 P5B       0.394400
     52 HN31        35.9400    12.2690     5.8270 hn         1 P5B       0.317000
     53 HN32        35.2830    12.0660     7.4390 hn         1 P5B       0.317000
     54 H11A        39.4850     7.9410    11.1440 hc         1 P5B       0.058700
     55 H12         39.0290     7.4490     9.5270 hc         1 P5B       0.058700
     56 HN4         37.7500     7.2360    13.0310 hn         1 P5B       0.502000
     57 H5          37.5690     5.6450    10.5460 h1         1 P5B       0.065700
     58 H91         36.6300     3.8640    11.5640 h1         1 P5B       0.092200
     59 H92         36.1400     3.1720    13.1310 h1         1 P5B       0.092200
     60 H81         38.5710     3.1780    13.8840 hc         1 P5B       0.052700
     61 H82         38.3560     2.2020    12.4170 hc         1 P5B       0.052700
     62 H83         39.0530     3.8270    12.3000 hc         1 P5B       0.052700
     63 HN21        27.6040     8.2020    13.8890 hn         1 P5B       0.454000
     64 HN22        26.9770     7.1630    15.1230 hn         1 P5B       0.454000
     65 H10         43.8190     4.2270    13.9850 ha         1 P5B       0.113000
     66 H7          43.4990     3.2690    11.6840 ha         1 P5B       0.114000
     67 H11         40.6310     7.0820    13.2450 ha         1 P5B       0.120000
     68 H6          42.3920     6.1260    14.7610 ha         1 P5B       0.115000
     69 HN7         41.9550     3.5660     9.3860 hn         1 P5B       0.352000
     70 H13         40.0150     5.0530     8.5060 h4         1 P5B       0.209000
     71 C26         28.0910     6.2490    13.7270 ce         1 P5B       0.641800
     72 S1          36.6620     5.4590    13.3110 s6         1 P5B       1.171100
@<TRIPOS>BOND
     1     1     2 2   
     2     1     3 1   
     3     1    23 1   
     4     3     4 1   
     5     3    38 1   
     6     4     5 1   
     7     4     7 1   
     8     4    39 1   
     9     5     6 1   
    10     5    40 1   
    11     5    41 1   
    12     6    18 1   
    13     6    42 1   
    14     6    43 1   
    15     7     8 2   
    16     7     9 1   
    17     9    10 1   
    18     9    44 1   
    19    10    16 1   
    20    10    45 1   
    21    10    46 1   
    22    11    12 ar  
    23    11    16 ar  
    24    11    47 1   
    25    12    13 ar  
    26    12    48 1   
    27    13    14 ar  
    28    13    71 1   
    29    14    15 ar  
    30    14    49 1   
    31    15    16 ar  
    32    15    50 1   
    33    17    51 1   
    34    17    71 2   
    35    18    19 2   
    36    18    20 1   
    37    20    52 1   
    38    20    53 1   
    39    21    23 1   
    40    21    37 1   
    41    21    54 1   
    42    21    55 1   
    43    22    23 1   
    44    22    56 1   
    45    22    72 1   
    46    23    57 1   
    47    24    72 2   
    48    25    72 2   
    49    26    27 1   
    50    26    58 1   
    51    26    59 1   
    52    26    72 1   
    53    27    60 1   
    54    27    61 1   
    55    27    62 1   
    56    28    63 1   
    57    28    64 1   
    58    28    71 1   
    59    29    30 ar  
    60    29    34 ar  
    61    29    65 1   
    62    30    31 ar  
    63    30    66 1   
    64    31    32 ar  
    65    31    35 1   
    66    32    33 ar  
    67    32    37 1   
    68    33    34 ar  
    69    33    67 1   
    70    34    68 1   
    71    35    36 1   
    72    35    69 1   
    73    36    37 2   
    74    36    70 1   
@<TRIPOS>SUBSTRUCTURE
     1 P5B         1 TEMP              0 ****  ****    0 ROOT
