@<TRIPOS>MOLECULE
P5B
   72    74     1     0     0
SMALL
abcg2


@<TRIPOS>ATOM
      1 C14         35.7670     7.2070    10.1210 c          1 P5B       0.573100
      2 O1          34.9410     7.5550    10.9640 o          1 P5B      -0.612100
      3 N5          35.7050     7.5950     8.8400 ns         1 P5B      -0.477900
      4 C15         34.6050     8.4140     8.3570 c3         1 P5B       0.042700
      5 C18         34.7790     8.7340     6.8720 c3         1 P5B      -0.081400
      6 C19         36.0290     9.5660     6.5820 c3         1 P5B      -0.157400
      7 C20         33.2890     7.6470     8.5590 c          1 P5B       0.581100
      8 O5          33.1900     6.4660     8.2350 o          1 P5B      -0.575100
      9 N6          32.2740     8.3680     9.0610 ns         1 P5B      -0.492900
     10 C21         30.9790     7.7840     9.3800 c3         1 P5B       0.147300
     11 C16         31.7760     6.4870    11.4020 ca         1 P5B      -0.091500
     12 C17         31.6750     6.1320    12.7360 ca         1 P5B      -0.092000
     13 C22         30.6720     6.6630    13.5560 ca         1 P5B      -0.170900
     14 C23         29.7760     7.5700    12.9860 ca         1 P5B      -0.092000
     15 C24         29.8730     7.9220    11.6440 ca         1 P5B      -0.091500
     16 C25         30.8690     7.3880    10.8350 ca         1 P5B      -0.107300
     17 N1          31.1770     5.2500    15.5190 n2         1 P5B      -0.834100
     18 C2          36.1170     9.9220     5.1090 c          1 P5B       0.595100
     19 O2          36.0540     9.0580     4.2330 o          1 P5B      -0.602100
     20 N3          36.2780    11.2270     4.8250 nt         1 P5B      -0.608000
     21 C1          38.0980     7.1640    11.0660 c3         1 P5B       0.013800
     22 N4          36.4740     5.3610    11.5450 n7         1 P5B      -0.853300
     23 C5          36.9370     6.3110    10.5200 c3         1 P5B       0.137500
     24 O4          35.3670     3.9010     9.7410 o          1 P5B      -0.541500
     25 O3          35.2470     3.2990    12.1470 o          1 P5B      -0.541500
     26 C9          37.5490     2.9870    10.8540 c3         1 P5B      -0.300400
     27 C8          38.2480     2.7010    12.1720 c3         1 P5B      -0.062100
     28 N2          29.8620     7.1020    15.8210 nv         1 P5B      -1.011200
     29 C10         41.3100     4.8650    14.7210 ca         1 P5B      -0.088000
     30 C7          41.7520     4.6400    13.4260 ca         1 P5B      -0.131000
     31 C3          41.0050     5.1870    12.3840 ca         1 P5B      -0.047200
     32 C4          39.8320     5.9550    12.6150 ca         1 P5B      -0.086800
     33 C11         39.4060     6.1610    13.9340 ca         1 P5B      -0.055000
     34 C6          40.1450     5.6150    14.9710 ca         1 P5B      -0.139000
     35 N7          41.1880     5.1250    11.0240 na         1 P5B      -0.229700
     36 C13         40.1920     5.8400    10.3970 cc         1 P5B      -0.166100
     37 C12         39.3290     6.3580    11.3300 cd         1 P5B      -0.139400
     38 HN5         36.4220     7.3000     8.1970 hn         1 P5B       0.331500
     39 H15         34.5770     9.3460     8.9280 h1         1 P5B       0.061700
     40 H181        33.8940     9.2870     6.5490 hc         1 P5B       0.078700
     41 H182        34.8000     7.8030     6.3060 hc         1 P5B       0.078700
     42 H191        36.9350     8.9980     6.8120 hc         1 P5B       0.056200
     43 H192        36.0390    10.4650     7.1990 hc         1 P5B       0.056200
     44 HN6         32.4590     9.3050     9.3830 hn         1 P5B       0.314500
     45 H211        30.8580     6.9110     8.7410 h1         1 P5B       0.068200
     46 H212        30.1970     8.4980     9.1260 h1         1 P5B       0.068200
     47 H16         32.5840     6.0850    10.8070 ha         1 P5B       0.123500
     48 H17         32.4070     5.4440    13.1390 ha         1 P5B       0.115500
     49 H23         28.9850     8.0190    13.5700 ha         1 P5B       0.115500
     50 H24         29.1630     8.6260    11.2260 ha         1 P5B       0.123500
     51 HN1         31.7410     4.7560    14.8350 hn         1 P5B       0.394400
     52 HN31        36.3350    11.5250     3.8630 hn         1 P5B       0.317000
     53 HN32        36.2990    11.9280     5.5470 hn         1 P5B       0.317000
     54 H11A        37.7630     7.6490    11.9850 hc         1 P5B       0.058700
     55 H12         38.2970     7.9570    10.3410 hc         1 P5B       0.058700
     56 HN4         35.7250     5.7720    12.1030 hn         1 P5B       0.502000
     57 H5          37.2890     5.7520     9.6550 h1         1 P5B       0.065700
     58 H91         38.1540     3.6000    10.1840 h1         1 P5B       0.092200
     59 H92         37.2630     2.0770    10.3240 h1         1 P5B       0.092200
     60 H81         37.6360     2.0640    12.8090 hc         1 P5B       0.052700
     61 H82         39.1900     2.1900    11.9690 hc         1 P5B       0.052700
     62 H83         38.4730     3.6240    12.7000 hc         1 P5B       0.052700
     63 HN21        29.0270     7.5230    15.4450 hn         1 P5B       0.454000
     64 HN22        29.7090     6.7100    16.7400 hn         1 P5B       0.454000
     65 H10         41.8660     4.4540    15.5540 ha         1 P5B       0.113000
     66 H7          42.6440     4.0570    13.2280 ha         1 P5B       0.114000
     67 H11         38.5100     6.7320    14.1430 ha         1 P5B       0.120000
     68 H6          39.8260     5.7670    15.9950 ha         1 P5B       0.115000
     69 HN7         41.9800     4.7110    10.5590 hn         1 P5B       0.352000
     70 H13         40.1600     5.9050     9.3210 h4         1 P5B       0.209000
     71 C26         30.5840     6.2620    14.9950 ce         1 P5B       0.641800
     72 S1          36.0030     3.8570    11.0450 s6         1 P5B       1.171100
@<TRIPOS>BOND
     1     1     2 2   
     2     1     3 1   
     3     1    23 1   
     4     3     4 1   
     5     3    38 1   
     6     4     5 1   
     7     4     7 1   
     8     4    39 1   
     9     5     6 1   
    10     5    40 1   
    11     5    41 1   
    12     6    18 1   
    13     6    42 1   
    14     6    43 1   
    15     7     8 2   
    16     7     9 1   
    17     9    10 1   
    18     9    44 1   
    19    10    16 1   
    20    10    45 1   
    21    10    46 1   
    22    11    12 ar  
    23    11    16 ar  
    24    11    47 1   
    25    12    13 ar  
    26    12    48 1   
    27    13    14 ar  
    28    13    71 1   
    29    14    15 ar  
    30    14    49 1   
    31    15    16 ar  
    32    15    50 1   
    33    17    51 1   
    34    17    71 2   
    35    18    19 2   
    36    18    20 1   
    37    20    52 1   
    38    20    53 1   
    39    21    23 1   
    40    21    37 1   
    41    21    54 1   
    42    21    55 1   
    43    22    23 1   
    44    22    56 1   
    45    22    72 1   
    46    23    57 1   
    47    24    72 2   
    48    25    72 2   
    49    26    27 1   
    50    26    58 1   
    51    26    59 1   
    52    26    72 1   
    53    27    60 1   
    54    27    61 1   
    55    27    62 1   
    56    28    63 1   
    57    28    64 1   
    58    28    71 1   
    59    29    30 ar  
    60    29    34 ar  
    61    29    65 1   
    62    30    31 ar  
    63    30    66 1   
    64    31    32 ar  
    65    31    35 1   
    66    32    33 ar  
    67    32    37 1   
    68    33    34 ar  
    69    33    67 1   
    70    34    68 1   
    71    35    36 1   
    72    35    69 1   
    73    36    37 2   
    74    36    70 1   
@<TRIPOS>SUBSTRUCTURE
     1 P5B         1 TEMP              0 ****  ****    0 ROOT
