@<TRIPOS>MOLECULE
P5C
   49    51     1     0     0
SMALL
bcc


@<TRIPOS>ATOM
      1 C2           1.2120     0.7070     0.0930 ca         1 P5C       0.966900
      2 C3           0.3420     2.7460    -0.2830 ca         1 P5C       0.533200
      3 N1           0.0160     0.1100     0.1020 nb         1 P5C      -0.868000
      4 C4          -0.9590     2.2650    -0.2700 ca         1 P5C      -0.540200
      5 C6          -1.0620     0.8480    -0.0920 ca         1 P5C       0.802200
      6 C8          -2.1330     3.1360    -0.4570 c          1 P5C       0.722700
      7 C12         -2.6650    -1.0690     0.0260 ca         1 P5C       0.174600
      8 C13         -1.8230    -2.1320     0.3610 ca         1 P5C      -0.152000
      9 C14         -3.7080    -3.6530     0.2820 ca         1 P5C      -0.157000
     10 C15         -4.5610    -2.6010    -0.0510 ca         1 P5C      -0.051300
     11 C16         -2.3600    -3.4070     0.4840 ca         1 P5C      -0.108000
     12 C17         -4.0270    -1.3270    -0.1760 ca         1 P5C      -0.179000
     13 C18         -6.0310    -2.8330    -0.2500 c3         1 P5C      -0.046800
     14 O10         -3.2580     2.6720    -0.6770 o          1 P5C      -0.658100
     15 N9          -1.9440     4.4620    -0.3850 nt         1 P5C      -0.665000
     16 N11         -2.2760     0.2610    -0.1240 nu         1 P5C      -0.738300
     17 N5           1.4270     2.0150    -0.1130 nb         1 P5C      -0.819000
     18 N7           2.2670    -0.0860     0.2990 nu         1 P5C      -0.840900
     19 C19          3.6450     0.3530     0.4120 c6         1 P5C       0.258500
     20 C24          4.4740    -0.7890     1.0170 c6         1 P5C       0.144500
     21 N25          3.8580    -1.2520     2.2510 n8         1 P5C      -0.899800
     22 C23          4.6170    -1.9590     0.0460 c6         1 P5C      -0.075400
     23 C22          5.1920    -1.5180    -1.2940 c6         1 P5C      -0.074400
     24 C21          4.3620    -0.3940    -1.9030 c6         1 P5C      -0.075400
     25 C20          4.2380     0.7750    -0.9340 c6         1 P5C      -0.087400
     26 H3           0.5320     3.7990    -0.4600 h4         1 P5C       0.005100
     27 H13         -0.7700    -1.9720     0.5160 ha         1 P5C       0.164000
     28 H14         -4.0980    -4.6590     0.3790 ha         1 P5C       0.128000
     29 H16         -1.6990    -4.2260     0.7400 ha         1 P5C       0.127000
     30 H17         -4.6860    -0.5050    -0.4370 ha         1 P5C       0.135000
     31 H18         -6.5710    -2.7470     0.6940 hc         1 P5C       0.041700
     32 H18A        -6.4630    -2.1080    -0.9390 hc         1 P5C       0.041700
     33 H18B        -6.2260    -3.8300    -0.6430 hc         1 P5C       0.041700
     34 HN9         -1.0870     4.8890    -0.0840 hn         1 P5C       0.315000
     35 HN9A        -2.7320     5.0750    -0.5200 hn         1 P5C       0.315000
     36 HN11        -3.0200     0.9240    -0.3390 hn         1 P5C       0.490800
     37 HN7          2.0550    -1.0220     0.6120 hn         1 P5C       0.467800
     38 H19          3.6880     1.2090     1.0960 h1         1 P5C       0.057700
     39 H24          5.4790    -0.3670     1.1770 h1         1 P5C       0.026700
     40 HN25         4.4190    -1.9970     2.6470 hn         1 P5C       0.346300
     41 HN2A         3.8600    -0.5080     2.9390 hn         1 P5C       0.346300
     42 H23          5.2560    -2.7210     0.5000 hc         1 P5C       0.047200
     43 H23A         3.6410    -2.4330    -0.1090 hc         1 P5C       0.047200
     44 H22          6.2220    -1.1710    -1.1540 hc         1 P5C       0.040200
     45 H22A         5.2430    -2.3700    -1.9760 hc         1 P5C       0.040200
     46 H21          4.8140    -0.0540    -2.8380 hc         1 P5C       0.047200
     47 H21A         3.3680    -0.7700    -2.1590 hc         1 P5C       0.047200
     48 H20          3.6350     1.5770    -1.3590 hc         1 P5C       0.056700
     49 H20A         5.2310     1.1980    -0.7440 hc         1 P5C       0.056700
@<TRIPOS>BOND
     1     1     3 ar  
     2     1    17 ar  
     3     1    18 1   
     4     2     4 ar  
     5     2    17 ar  
     6     2    26 1   
     7     3     5 ar  
     8     4     5 ar  
     9     4     6 1   
    10     5    16 1   
    11     6    14 2   
    12     6    15 1   
    13     7     8 ar  
    14     7    12 ar  
    15     7    16 1   
    16     8    11 ar  
    17     8    27 1   
    18     9    10 ar  
    19     9    11 ar  
    20     9    28 1   
    21    10    12 ar  
    22    10    13 1   
    23    11    29 1   
    24    12    30 1   
    25    13    31 1   
    26    13    32 1   
    27    13    33 1   
    28    15    34 1   
    29    15    35 1   
    30    16    36 1   
    31    18    19 1   
    32    18    37 1   
    33    19    20 1   
    34    19    25 1   
    35    19    38 1   
    36    20    21 1   
    37    20    22 1   
    38    20    39 1   
    39    21    40 1   
    40    21    41 1   
    41    22    23 1   
    42    22    42 1   
    43    22    43 1   
    44    23    24 1   
    45    23    44 1   
    46    23    45 1   
    47    24    25 1   
    48    24    46 1   
    49    24    47 1   
    50    25    48 1   
    51    25    49 1   
@<TRIPOS>SUBSTRUCTURE
     1 P5C         1 TEMP              0 ****  ****    0 ROOT
