@<TRIPOS>MOLECULE
P5C
   49    51     1     0     0
SMALL
No Charge or Current Charge


@<TRIPOS>ATOM
      1 C2           1.1710     0.7410     0.0120 ca         1 P5C       0.440900
      2 C3           0.2940     2.8330    -0.2180 ca         1 P5C       0.204900
      3 N1          -0.0120     0.1270     0.0750 nb         1 P5C      -0.342000
      4 C4          -1.0080     2.2980    -0.1720 ca         1 P5C      -0.409600
      5 C6          -1.0990     0.9050    -0.0060 ca         1 P5C       0.473900
      6 C8          -2.2070     3.1830    -0.3040 c          1 P5C       0.655700
      7 C12         -2.7970    -1.0230     0.2340 ca         1 P5C       0.313000
      8 C13         -2.0660    -2.0080     0.9270 ca         1 P5C      -0.134000
      9 C14         -3.8650    -3.6100     0.5860 ca         1 P5C      -0.139000
     10 C15         -4.6110    -2.6330    -0.0960 ca         1 P5C      -0.051300
     11 C16         -2.5960    -3.2980     1.1000 ca         1 P5C      -0.090000
     12 C17         -4.0730    -1.3430    -0.2600 ca         1 P5C      -0.161000
     13 C18         -5.9910    -2.9640    -0.6430 c3         1 P5C      -0.046800
     14 O10         -3.3490     2.7600    -0.3640 o          1 P5C      -0.658100
     15 N9          -2.0030     4.5090    -0.3770 nt         1 P5C      -0.598000
     16 N11         -2.3310     0.2810     0.0460 nu         1 P5C      -0.931900
     17 N5           1.3850     2.0580    -0.1230 nb         1 P5C      -0.293000
     18 N7           2.2610    -0.1040     0.1140 nu         1 P5C      -0.896100
     19 C19          3.6680     0.2980     0.3200 c6         1 P5C       0.258500
     20 C24          4.4820    -0.9140     0.9240 c6         1 P5C       0.144500
     21 N25          3.8060    -1.5320     2.1020 n8         1 P5C      -1.010200
     22 C23          4.7620    -2.0160    -0.1360 c6         1 P5C      -0.075400
     23 C22          5.4420    -1.4380    -1.4000 c6         1 P5C      -0.074400
     24 C21          4.5890    -0.3070    -2.0210 c6         1 P5C      -0.075400
     25 C20          4.3270     0.8210    -0.9910 c6         1 P5C      -0.087400
     26 H3           0.4820     3.8980    -0.3400 h4         1 P5C       0.005100
     27 H13         -1.0960    -1.7800     1.3550 ha         1 P5C       0.146000
     28 H14         -4.2700    -4.6100     0.7250 ha         1 P5C       0.110000
     29 H16         -2.0260    -4.0530     1.6370 ha         1 P5C       0.109000
     30 H17         -4.6510    -0.5850    -0.7840 ha         1 P5C       0.117000
     31 H18         -6.7700    -2.7200     0.0890 hc         1 P5C       0.041700
     32 H18A        -6.2040    -2.4000    -1.5590 hc         1 P5C       0.041700
     33 H18B        -6.0810    -4.0300    -0.8850 hc         1 P5C       0.041700
     34 HN9         -1.0680     4.8820    -0.3310 hn         1 P5C       0.315000
     35 HN9A        -2.7980     5.1220    -0.4720 hn         1 P5C       0.315000
     36 HN11        -3.0700     0.9630    -0.1610 hn         1 P5C       0.546000
     37 HN7          2.0300    -1.0290     0.4730 hn         1 P5C       0.523000
     38 H19          3.6990     1.1100     1.0640 h1         1 P5C       0.057700
     39 H24          5.4490    -0.5270     1.2780 h1         1 P5C       0.026700
     40 HN25         4.4480    -2.2040     2.5370 hn         1 P5C       0.401500
     41 HN2A         3.6840    -0.8150     2.8280 hn         1 P5C       0.401500
     42 H23          5.4040    -2.7970     0.2960 hc         1 P5C       0.047200
     43 H23A         3.8240    -2.5110    -0.4230 hc         1 P5C       0.047200
     44 H22          6.4400    -1.0550    -1.1440 hc         1 P5C       0.040200
     45 H22A         5.5950    -2.2370    -2.1390 hc         1 P5C       0.040200
     46 H21          5.1020     0.1050    -2.9010 hc         1 P5C       0.047200
     47 H21A         3.6340    -0.7150    -2.3800 hc         1 P5C       0.047200
     48 H20          3.7130     1.6060    -1.4480 hc         1 P5C       0.056700
     49 H20A         5.2830     1.2990    -0.7370 hc         1 P5C       0.056700
@<TRIPOS>BOND
     1     1     3 ar  
     2     1    17 ar  
     3     1    18 1   
     4     2     4 ar  
     5     2    17 ar  
     6     2    26 1   
     7     3     5 ar  
     8     4     5 ar  
     9     4     6 1   
    10     5    16 1   
    11     6    14 2   
    12     6    15 1   
    13     7     8 ar  
    14     7    12 ar  
    15     7    16 1   
    16     8    11 ar  
    17     8    27 1   
    18     9    10 ar  
    19     9    11 ar  
    20     9    28 1   
    21    10    12 ar  
    22    10    13 1   
    23    11    29 1   
    24    12    30 1   
    25    13    31 1   
    26    13    32 1   
    27    13    33 1   
    28    15    34 1   
    29    15    35 1   
    30    16    36 1   
    31    18    19 1   
    32    18    37 1   
    33    19    20 1   
    34    19    25 1   
    35    19    38 1   
    36    20    21 1   
    37    20    22 1   
    38    20    39 1   
    39    21    40 1   
    40    21    41 1   
    41    22    23 1   
    42    22    42 1   
    43    22    43 1   
    44    23    24 1   
    45    23    44 1   
    46    23    45 1   
    47    24    25 1   
    48    24    46 1   
    49    24    47 1   
    50    25    48 1   
    51    25    49 1   
@<TRIPOS>SUBSTRUCTURE
     1 P5C         1 TEMP              0 ****  ****    0 ROOT
