@<TRIPOS>MOLECULE
P5D
   36    36     1     0     0
SMALL
abcg2


@<TRIPOS>ATOM
      1 C1          -3.0490     1.3110     0.2380 c3         1 P5D      -0.038100
      2 N1          -1.2420     2.6390     1.3010 n8         1 P5D      -0.953200
      3 C2          -1.6940     1.2920     0.9700 c3         1 P5D      -0.171500
      4 P3          -0.3860     0.4460    -0.0500 p5         1 P5D       1.384000
      5 C4           1.1520     0.7970     0.8950 c3         1 P5D      -0.391400
      6 C5           2.3570    -0.0010     0.3920 c3         1 P5D      -0.139700
      7 C6           2.8060     0.4700    -1.0030 c          1 P5D       0.743000
      8 C7           3.5240     0.1170     1.3770 c3         1 P5D      -0.153400
      9 C8           4.7420    -0.7390     1.0020 c          1 P5D       0.725000
     10 CG          -3.6750    -0.0280    -0.0260 ca         1 P5D      -0.025300
     11 CZ          -4.8870    -2.5050    -0.5300 ca         1 P5D      -0.141000
     12 O31         -0.3550     1.1670    -1.3870 o          1 P5D      -0.824500
     13 O32         -0.6270    -1.0500    -0.0190 o          1 P5D      -0.824500
     14 O61          2.8020    -0.3640    -1.9310 o          1 P5D      -0.772000
     15 O62          3.1790     1.6600    -1.0950 o          1 P5D      -0.772000
     16 O81          4.5270    -1.9500     0.7790 o          1 P5D      -0.785000
     17 O82          5.8590    -0.1800     0.9650 o          1 P5D      -0.785000
     18 CD1         -3.5320    -0.6560    -1.2620 ca         1 P5D      -0.083000
     19 CD2         -4.4300    -0.6660     0.9540 ca         1 P5D      -0.083000
     20 CE1         -4.1370    -1.8760    -1.5170 ca         1 P5D      -0.122500
     21 CE2         -5.0290    -1.8970     0.7100 ca         1 P5D      -0.122500
     22 H1          -3.7420     1.9090     0.8420 hc         1 P5D       0.016700
     23 H1A         -2.9180     1.8480    -0.7050 hc         1 P5D       0.016700
     24 HN1         -1.0330     3.1330     0.4400 hn         1 P5D       0.359500
     25 HN1A        -1.9990     3.1560     1.7350 hn         1 P5D       0.359500
     26 H2          -1.8100     0.7330     1.9060 h1         1 P5D       0.049700
     27 H4           1.3750     1.8660     0.8740 hc         1 P5D       0.015200
     28 H4A          0.9620     0.5440     1.9450 hc         1 P5D       0.015200
     29 H5           2.0700    -1.0520     0.3340 hc         1 P5D       0.057700
     30 H7           3.8090     1.1670     1.4760 hc         1 P5D      -0.014300
     31 H7A          3.1760    -0.2060     2.3670 hc         1 P5D      -0.014300
     32 HZ          -5.3600    -3.4590    -0.7280 ha         1 P5D       0.072000
     33 HD1         -2.9340    -0.1760    -2.0270 ha         1 P5D       0.119000
     34 HD2         -4.5610    -0.1920     1.9200 ha         1 P5D       0.119000
     35 HE1         -4.0230    -2.3410    -2.4890 ha         1 P5D       0.082000
     36 HE2         -5.6150    -2.3740     1.4850 ha         1 P5D       0.082000
@<TRIPOS>BOND
     1     1     3 1   
     2     1    10 1   
     3     1    22 1   
     4     1    23 1   
     5     2     3 1   
     6     2    24 1   
     7     2    25 1   
     8     3     4 1   
     9     3    26 1   
    10     4     5 1   
    11     4    12 1   
    12     4    13 1   
    13     5     6 1   
    14     5    27 1   
    15     5    28 1   
    16     6     7 1   
    17     6     8 1   
    18     6    29 1   
    19     7    14 1   
    20     7    15 1   
    21     8     9 1   
    22     8    30 1   
    23     8    31 1   
    24     9    16 1   
    25     9    17 1   
    26    10    18 ar  
    27    10    19 ar  
    28    11    20 ar  
    29    11    21 ar  
    30    11    32 1   
    31    18    20 ar  
    32    18    33 1   
    33    19    21 ar  
    34    19    34 1   
    35    20    35 1   
    36    21    36 1   
@<TRIPOS>SUBSTRUCTURE
     1 P5D         1 TEMP              0 ****  ****    0 ROOT
