@<TRIPOS>MOLECULE
P5D
   36    36     1     0     0
SMALL
No Charge or Current Charge


@<TRIPOS>ATOM
      1 C1          -3.0910     1.4030     0.1910 c3         1 P5D      -0.038100
      2 N1          -1.5060     2.7320     1.5820 n8         1 P5D      -0.953200
      3 C2          -1.7310     1.3670     0.9460 c3         1 P5D      -0.171500
      4 P3          -0.3730     0.4790    -0.0930 p5         1 P5D       1.384000
      5 C4           1.1850     0.8220     0.8640 c3         1 P5D      -0.391400
      6 C5           2.4420    -0.0290     0.4680 c3         1 P5D      -0.139700
      7 C6           2.8370     0.1170    -1.0390 c          1 P5D       0.743000
      8 C7           3.6480     0.2560     1.4190 c3         1 P5D      -0.153400
      9 C8           4.7840    -0.7770     1.2030 c          1 P5D       0.725000
     10 CG          -3.6820     0.0260    -0.0980 ca         1 P5D      -0.025300
     11 CZ          -4.8180    -2.5020    -0.6300 ca         1 P5D      -0.141000
     12 O31         -0.2830     1.0890    -1.4590 o          1 P5D      -0.824500
     13 O32         -0.6060    -1.0010    -0.1290 o          1 P5D      -0.824500
     14 O61          2.7900    -0.8800    -1.7460 o          1 P5D      -0.772000
     15 O62          3.1770     1.2150    -1.4620 o          1 P5D      -0.772000
     16 O81          4.7340    -1.8320     1.8190 o          1 P5D      -0.785000
     17 O82          5.6840    -0.5060     0.4220 o          1 P5D      -0.785000
     18 CD1         -3.8120    -0.4320    -1.4250 ca         1 P5D      -0.083000
     19 CD2         -4.1330    -0.7900     0.9590 ca         1 P5D      -0.083000
     20 CE1         -4.3760    -1.6930    -1.6890 ca         1 P5D      -0.122500
     21 CE2         -4.6970    -2.0500     0.6940 ca         1 P5D      -0.122500
     22 H1          -3.8200     1.9660     0.7880 hc         1 P5D       0.016700
     23 H1A         -2.9690     1.9710    -0.7390 hc         1 P5D       0.016700
     24 HN1         -1.3250     3.4340     0.8540 hn         1 P5D       0.359500
     25 HN1A        -2.3700     3.0560     2.0330 hn         1 P5D       0.359500
     26 H2          -1.8470     0.6690     1.7840 h1         1 P5D       0.049700
     27 H4           1.4080     1.8890     0.7560 hc         1 P5D       0.015200
     28 H4A          0.9410     0.6470     1.9180 hc         1 P5D       0.015200
     29 H5           2.1680    -1.0810     0.6190 hc         1 P5D       0.057700
     30 H7           3.9910     1.2740     1.1950 hc         1 P5D      -0.014300
     31 H7A          3.2450     0.1510     2.4350 hc         1 P5D      -0.014300
     32 HZ          -5.2550    -3.4760    -0.8350 ha         1 P5D       0.072000
     33 HD1         -3.4740     0.1870    -2.2530 ha         1 P5D       0.119000
     34 HD2         -4.0490    -0.4440     1.9870 ha         1 P5D       0.119000
     35 HE1         -4.4710    -2.0410    -2.7150 ha         1 P5D       0.082000
     36 HE2         -5.0420    -2.6740     1.5150 ha         1 P5D       0.082000
@<TRIPOS>BOND
     1     1     3 1   
     2     1    10 1   
     3     1    22 1   
     4     1    23 1   
     5     2     3 1   
     6     2    24 1   
     7     2    25 1   
     8     3     4 1   
     9     3    26 1   
    10     4     5 1   
    11     4    12 1   
    12     4    13 1   
    13     5     6 1   
    14     5    27 1   
    15     5    28 1   
    16     6     7 1   
    17     6     8 1   
    18     6    29 1   
    19     7    14 1   
    20     7    15 1   
    21     8     9 1   
    22     8    30 1   
    23     8    31 1   
    24     9    16 1   
    25     9    17 1   
    26    10    18 ar  
    27    10    19 ar  
    28    11    20 ar  
    29    11    21 ar  
    30    11    32 1   
    31    18    20 ar  
    32    18    33 1   
    33    19    21 ar  
    34    19    34 1   
    35    20    35 1   
    36    21    36 1   
@<TRIPOS>SUBSTRUCTURE
     1 P5D         1 TEMP              0 ****  ****    0 ROOT
