@<TRIPOS>MOLECULE
P5G
   49    51     1     0     0
SMALL
bcc


@<TRIPOS>ATOM
      1 C4          -2.8990    -0.7790     0.0150 ca         1 P5G      -0.085300
      2 C5          -1.4410    -0.6990     0.3810 c3         1 P5G      -0.019100
      3 C6          -0.6910     0.3390    -0.4530 c5         1 P5G      -0.095200
      4 C7          -1.2210     1.7670    -0.2740 c5         1 P5G       0.124900
      5 C8           0.9420     1.9530     0.2700 c5         1 P5G       0.124900
      6 C10          1.7070     0.0600    -1.2660 c3         1 P5G      -0.019100
      7 C13          5.3360     1.2000    -1.2040 ca         1 P5G      -0.140000
      8 C15          5.0950    -0.6850     0.2690 ca         1 P5G       0.048100
      9 C17          3.7510    -0.7600    -0.0550 ca         1 P5G      -0.168500
     10 C20         -5.6040    -0.8420    -0.7310 ca         1 P5G       0.119600
     11 C11          3.1750     0.1430    -0.9550 ca         1 P5G      -0.085300
     12 C12          3.9820     1.1180    -1.5200 ca         1 P5G      -0.120000
     13 C14          5.9020     0.3090    -0.3130 ca         1 P5G       0.119600
     14 C16          5.0010    -2.5030     1.7980 c3         1 P5G       0.134200
     15 C18         -3.3090    -1.4560    -1.1250 ca         1 P5G      -0.120000
     16 C19         -4.6490    -1.4890    -1.4950 ca         1 P5G      -0.140000
     17 C2          -5.2040    -0.1570     0.4270 ca         1 P5G       0.048100
     18 C3          -3.8660    -0.1360     0.7900 ca         1 P5G      -0.168500
     19 C9           0.8080     0.4700    -0.0930 c5         1 P5G      -0.095200
     20 O1          -6.2090     0.4410     1.1060 os         1 P5G      -0.344900
     21 O2          -0.0990     2.6090    -0.4240 os         1 P5G      -0.397600
     22 O3           7.2170     0.4050    -0.0190 oh         1 P5G      -0.495100
     23 O5          -6.8990    -0.8840    -1.1140 oh         1 P5G      -0.495100
     24 H52         -1.3300    -0.4570     1.4420 hc         1 P5G       0.049700
     25 H51         -0.9720    -1.6760     0.2350 hc         1 P5G       0.049700
     26 H6          -0.7790     0.0580    -1.5080 hc         1 P5G       0.059700
     27 H72         -1.9780     2.0480    -1.0060 h1         1 P5G       0.049200
     28 H71         -1.6570     1.8910     0.7290 h1         1 P5G       0.049200
     29 H81          0.8280     2.0890     1.3550 h1         1 P5G       0.049200
     30 H82          1.8970     2.3930    -0.0240 h1         1 P5G       0.049200
     31 H9L          1.4790     0.6960    -2.1270 hc         1 P5G       0.049700
     32 H10          1.4460    -0.9610    -1.5620 hc         1 P5G       0.049700
     33 H9N          5.9570     1.9650    -1.6530 ha         1 P5G       0.149000
     34 H17          3.1270    -1.5280     0.3870 ha         1 P5G       0.132500
     35 H12         -5.2070     2.0210     2.0200 h1         1 P5G       0.041200
     36 H13         -6.8280     1.6190     2.6170 h1         1 P5G       0.041200
     37 H11         -5.4520     0.5860     3.0410 h1         1 P5G       0.041200
     38 H9M          3.5580     1.8280    -2.2200 ha         1 P5G       0.136000
     39 H16          4.2020    -2.0710     2.4060 h1         1 P5G       0.041200
     40 H9O          4.5640    -3.2240     1.1020 h1         1 P5G       0.041200
     41 H9P          5.6980    -3.0230     2.4490 h1         1 P5G       0.041200
     42 H18         -2.5800    -1.9720    -1.7390 ha         1 P5G       0.136000
     43 H19         -4.9580    -2.0210    -2.3860 ha         1 P5G       0.149000
     44 H31         -3.5560     0.3790     1.6910 ha         1 P5G       0.132500
     45 H9           1.0510    -0.1520     0.7730 hc         1 P5G       0.059700
     46 H32          7.4590    -0.2680     0.6300 ho         1 P5G       0.441500
     47 H53         -7.4460    -0.3950    -0.4860 ho         1 P5G       0.441500
     48 O4           5.7420    -1.5060     1.1250 os         1 P5G      -0.344900
     49 C1          -5.8930     1.2020     2.2540 c3         1 P5G       0.134200
@<TRIPOS>BOND
     1     1     2 1   
     2     1    15 ar  
     3     1    18 ar  
     4     2     3 1   
     5     2    24 1   
     6     2    25 1   
     7     3     4 1   
     8     3    19 1   
     9     3    26 1   
    10     4    21 1   
    11     4    27 1   
    12     4    28 1   
    13     5    19 1   
    14     5    21 1   
    15     5    29 1   
    16     5    30 1   
    17     6    11 1   
    18     6    19 1   
    19     6    31 1   
    20     6    32 1   
    21     7    12 ar  
    22     7    13 ar  
    23     7    33 1   
    24     8     9 ar  
    25     8    13 ar  
    26     8    48 1   
    27     9    11 ar  
    28     9    34 1   
    29    10    16 ar  
    30    10    17 ar  
    31    10    23 1   
    32    11    12 ar  
    33    12    38 1   
    34    13    22 1   
    35    14    39 1   
    36    14    40 1   
    37    14    41 1   
    38    14    48 1   
    39    15    16 ar  
    40    15    42 1   
    41    16    43 1   
    42    17    18 ar  
    43    17    20 1   
    44    18    44 1   
    45    19    45 1   
    46    20    49 1   
    47    22    46 1   
    48    23    47 1   
    49    35    49 1   
    50    36    49 1   
    51    37    49 1   
@<TRIPOS>SUBSTRUCTURE
     1 P5G         1 TEMP              0 ****  ****    0 ROOT
