@<TRIPOS>MOLECULE
P5G
   49    51     1     0     0
SMALL
No Charge or Current Charge


@<TRIPOS>ATOM
      1 C4          -2.9730    -0.5900    -0.4750 ca         1 P5G      -0.085300
      2 C5          -1.4700    -0.6910    -0.2490 c3         1 P5G      -0.019100
      3 C6          -0.7140     0.6100    -0.6130 c5         1 P5G      -0.095200
      4 C7          -1.1440     1.8570     0.2020 c5         1 P5G       0.148100
      5 C8           1.0990     2.1220    -0.4850 c5         1 P5G       0.148100
      6 C10          1.6730    -0.3340    -1.1460 c3         1 P5G      -0.019100
      7 C13          5.3680     0.6290    -1.5260 ca         1 P5G      -0.122000
      8 C15          5.1020    -0.5970     0.5680 ca         1 P5G       0.048100
      9 C17          3.7210    -0.7340     0.3040 ca         1 P5G      -0.150500
     10 C20         -5.7480    -0.3840    -0.9100 ca         1 P5G       0.119600
     11 C11          3.1650    -0.1910    -0.8720 ca         1 P5G      -0.085300
     12 C12          3.9940     0.4910    -1.7840 ca         1 P5G      -0.102000
     13 C14          5.9200     0.0880    -0.3550 ca         1 P5G       0.119600
     14 C16          4.9430    -1.8220     2.7120 c3         1 P5G       0.157400
     15 C18         -3.5010    -0.7270    -1.7730 ca         1 P5G      -0.102000
     16 C19         -4.8850    -0.6250    -1.9900 ca         1 P5G      -0.122000
     17 C2          -5.2340    -0.2430     0.3960 ca         1 P5G       0.048100
     18 C3          -3.8410    -0.3470     0.6090 ca         1 P5G      -0.150500
     19 C9           0.8040     0.6130    -0.2830 c5         1 P5G      -0.095200
     20 O1          -6.1280    -0.0030     1.4260 os         1 P5G      -0.368100
     21 O2          -0.0670     2.8100     0.0310 os         1 P5G      -0.444000
     22 O3           7.2540     0.2230    -0.1040 oh         1 P5G      -0.534100
     23 O5          -7.0930    -0.2850    -1.1220 oh         1 P5G      -0.534100
     24 H52         -1.2660    -0.9540     0.7970 hc         1 P5G       0.049700
     25 H51         -1.0730    -1.5240    -0.8420 hc         1 P5G       0.049700
     26 H6          -0.8800     0.7860    -1.6830 hc         1 P5G       0.059700
     27 H72         -2.0910     2.2900    -0.1480 h1         1 P5G       0.049200
     28 H71         -1.2390     1.6250     1.2710 h1         1 P5G       0.049200
     29 H81          2.0000     2.4550     0.0460 h1         1 P5G       0.049200
     30 H82          1.2070     2.3710    -1.5500 h1         1 P5G       0.049200
     31 H9L          1.4690    -0.1530    -2.2090 hc         1 P5G       0.049700
     32 H10          1.3740    -1.3740    -0.9640 hc         1 P5G       0.049700
     33 H9N          6.0040     1.1570    -2.2320 ha         1 P5G       0.131000
     34 H17          3.0670    -1.2560     0.9970 ha         1 P5G       0.114500
     35 H12         -5.0190     1.0150     2.8880 h1         1 P5G       0.041200
     36 H13         -6.5660     0.3410     3.4420 h1         1 P5G       0.041200
     37 H11         -5.1890    -0.7410     3.1510 h1         1 P5G       0.041200
     38 H9M          3.5740     0.9160    -2.6930 ha         1 P5G       0.118000
     39 H16          4.1600    -1.1820     3.1390 h1         1 P5G       0.041200
     40 H9O          4.4730    -2.7180     2.2860 h1         1 P5G       0.041200
     41 H9P          5.6040    -2.1410     3.5280 h1         1 P5G       0.041200
     42 H18         -2.8370    -0.9110    -2.6150 ha         1 P5G       0.118000
     43 H19         -5.2880    -0.7320    -2.9940 ha         1 P5G       0.131000
     44 H31         -3.4190    -0.2390     1.6040 ha         1 P5G       0.114500
     45 H9           0.9740     0.3360     0.7650 hc         1 P5G       0.059700
     46 H32          7.4210    -0.2230     0.7560 ho         1 P5G       0.480500
     47 H53         -7.4990    -0.1170    -0.2420 ho         1 P5G       0.480500
     48 O4           5.6950    -1.1120     1.7100 os         1 P5G      -0.368100
     49 C1          -5.7010     0.1600     2.7920 c3         1 P5G       0.157400
@<TRIPOS>BOND
     1     1     2 1   
     2     1    15 ar  
     3     1    18 ar  
     4     2     3 1   
     5     2    24 1   
     6     2    25 1   
     7     3     4 1   
     8     3    19 1   
     9     3    26 1   
    10     4    21 1   
    11     4    27 1   
    12     4    28 1   
    13     5    19 1   
    14     5    21 1   
    15     5    29 1   
    16     5    30 1   
    17     6    11 1   
    18     6    19 1   
    19     6    31 1   
    20     6    32 1   
    21     7    12 ar  
    22     7    13 ar  
    23     7    33 1   
    24     8     9 ar  
    25     8    13 ar  
    26     8    48 1   
    27     9    11 ar  
    28     9    34 1   
    29    10    16 ar  
    30    10    17 ar  
    31    10    23 1   
    32    11    12 ar  
    33    12    38 1   
    34    13    22 1   
    35    14    39 1   
    36    14    40 1   
    37    14    41 1   
    38    14    48 1   
    39    15    16 ar  
    40    15    42 1   
    41    16    43 1   
    42    17    18 ar  
    43    17    20 1   
    44    18    44 1   
    45    19    45 1   
    46    20    49 1   
    47    22    46 1   
    48    23    47 1   
    49    35    49 1   
    50    36    49 1   
    51    37    49 1   
@<TRIPOS>SUBSTRUCTURE
     1 P5G         1 TEMP              0 ****  ****    0 ROOT
