@<TRIPOS>MOLECULE
P5I
   37    39     1     0     0
SMALL
abcg2


@<TRIPOS>ATOM
      1 C10         24.1260   -25.7710     5.3640 ca         1 P5I       0.294900
      2 C13         24.0660   -25.8170     1.5640 cc         1 P5I      -0.246000
      3 C15         25.6480   -25.7740    -0.4990 ca         1 P5I      -0.114500
      4 C17         24.9320   -25.8560    -2.7980 ca         1 P5I      -0.111000
      5 C21         26.9770   -25.7590    -0.9230 ca         1 P5I      -0.073000
      6 C24         22.1630   -25.8550     4.0010 ca         1 P5I      -0.144000
      7 C02         21.3250   -25.9400     7.6730 c          1 P5I       0.516600
      8 C04         19.2770   -25.1510     8.6950 c3         1 P5I      -0.056000
      9 C05         18.2770   -26.1480     8.0710 c          1 P5I       0.718000
     10 C08         22.0800   -25.8480     6.3830 ca         1 P5I       0.194500
     11 C11         23.5450   -25.7870     4.0930 ca         1 P5I      -0.172500
     12 C12         24.3590   -25.7530     2.8880 cd         1 P5I       0.269500
     13 C14         25.3350   -25.7420     0.9340 cc         1 P5I       0.321500
     14 C16         24.6280   -25.8230    -1.4450 ca         1 P5I      -0.086000
     15 C18         26.2490   -25.8410    -3.2270 ca         1 P5I      -0.099000
     16 C19         27.2590   -25.7920    -2.2760 ca         1 P5I       0.111000
     17 C25         21.3870   -25.8900     5.1600 ca         1 P5I       0.195100
     18 N03         20.4430   -24.9450     7.8770 ns         1 P5I      -0.475900
     19 N09         23.4030   -25.8130     6.4660 nb         1 P5I      -0.609000
     20 N22         26.2860   -25.6400     1.8230 nd         1 P5I      -0.376300
     21 O01         21.4990   -26.8680     8.4450 o          1 P5I      -0.572100
     22 O06         17.3000   -26.4430     8.7610 o          1 P5I      -0.701500
     23 O07         18.5210   -26.5750     6.9080 o          1 P5I      -0.701500
     24 O23         25.6840   -25.6460     3.0340 os         1 P5I      -0.059700
     25 O26         20.0730   -25.9690     5.0350 oh         1 P5I      -0.612100
     26 CL20        28.9110   -25.7750    -2.7940 cl         1 P5I      -0.210000
     27 H1          25.2010   -25.7290     5.4940 h4         1 P5I       0.024100
     28 H2          23.0960   -25.9120     1.1060 ha         1 P5I       0.155000
     29 H3          24.1340   -25.8940    -3.5270 ha         1 P5I       0.117000
     30 H4          27.7830   -25.7240    -0.2030 ha         1 P5I       0.149000
     31 H5          21.6660   -25.8850     3.0390 ha         1 P5I       0.125000
     32 H6          19.5600   -25.4990     9.6880 h1         1 P5I       0.051200
     33 H7          18.7810   -24.1900     8.8320 h1         1 P5I       0.051200
     34 H8          23.5910   -25.8340    -1.1360 ha         1 P5I       0.124000
     35 H9          26.4850   -25.8670    -4.2820 ha         1 P5I       0.124000
     36 H10         20.3780   -24.2240     7.1740 hn         1 P5I       0.296500
     37 H12         19.5300   -26.1550     5.8880 ho         1 P5I       0.581000
@<TRIPOS>BOND
     1     1    11 ar  
     2     1    19 ar  
     3     1    27 1   
     4     2    12 2   
     5     2    13 1   
     6     2    28 1   
     7     3     5 ar  
     8     3    13 1   
     9     3    14 ar  
    10     4    14 ar  
    11     4    15 ar  
    12     4    29 1   
    13     5    16 ar  
    14     5    30 1   
    15     6    11 ar  
    16     6    17 ar  
    17     6    31 1   
    18     7    10 1   
    19     7    18 1   
    20     7    21 2   
    21     8     9 1   
    22     8    18 1   
    23     8    32 1   
    24     8    33 1   
    25     9    22 1   
    26     9    23 1   
    27    10    17 ar  
    28    10    19 ar  
    29    11    12 1   
    30    12    24 1   
    31    13    20 2   
    32    14    34 1   
    33    15    16 ar  
    34    15    35 1   
    35    16    26 1   
    36    17    25 1   
    37    18    36 1   
    38    20    24 1   
    39    25    37 1   
@<TRIPOS>SUBSTRUCTURE
     1 P5I         1 TEMP              0 ****  ****    0 ROOT
