@<TRIPOS>MOLECULE
P5I
   37    39     1     0     0
SMALL
No Charge or Current Charge


@<TRIPOS>ATOM
      1 C10         24.2570   -25.8600     5.4670 ca         1 P5I       0.294900
      2 C13         24.2580   -25.7870     1.6670 cc         1 P5I      -0.246000
      3 C15         25.6770   -25.8180    -0.4670 ca         1 P5I      -0.114500
      4 C17         24.7520   -25.7320    -2.7380 ca         1 P5I      -0.111000
      5 C21         26.9750   -25.8710    -1.0320 ca         1 P5I      -0.073000
      6 C24         22.2950   -25.7380     4.0570 ca         1 P5I      -0.144000
      7 C02         21.3490   -25.7010     7.7850 c          1 P5I       0.516600
      8 C04         19.0180   -25.1740     8.5670 c3         1 P5I      -0.056000
      9 C05         18.2340   -26.3650     7.9480 c          1 P5I       0.718000
     10 C08         22.1510   -25.7560     6.4890 ca         1 P5I       0.194500
     11 C11         23.6990   -25.8050     4.1760 ca         1 P5I      -0.172500
     12 C12         24.5640   -25.8260     2.9850 cd         1 P5I       0.269500
     13 C14         25.4990   -25.8360     0.9980 cc         1 P5I       0.321500
     14 C16         24.5680   -25.7480    -1.3430 ca         1 P5I      -0.086000
     15 C18         26.0450   -25.7850    -3.2800 ca         1 P5I      -0.099000
     16 C19         27.1540   -25.8550    -2.4250 ca         1 P5I       0.111000
     17 C25         21.4990   -25.7260     5.2150 ca         1 P5I       0.195100
     18 N03         20.2350   -24.8790     7.7750 ns         1 P5I      -0.475900
     19 N09         23.5130   -25.8370     6.5950 nb         1 P5I      -0.609000
     20 N22         26.5250   -25.9020     1.8390 nd         1 P5I      -0.376300
     21 O01         21.6210   -26.3830     8.7690 o          1 P5I      -0.572100
     22 O06         17.3020   -26.8350     8.5840 o          1 P5I      -0.701500
     23 O07         18.5930   -26.7820     6.8500 o          1 P5I      -0.701500
     24 O23         25.9200   -25.8960     3.1460 os         1 P5I      -0.059700
     25 O26         20.1320   -25.7060     5.0330 oh         1 P5I      -0.612100
     26 Cl20        28.7770   -25.9220    -3.1010 cl         1 P5I      -0.210000
     27 H1          25.3350   -25.9200     5.6150 h4         1 P5I       0.024100
     28 H2          23.2750   -25.7310     1.2210 ha         1 P5I       0.155000
     29 H3          23.8890   -25.6780    -3.3980 ha         1 P5I       0.117000
     30 H4          27.8560   -25.9260    -0.3970 ha         1 P5I       0.149000
     31 H5          21.8170   -25.7090     3.0810 ha         1 P5I       0.125000
     32 H6          19.2920   -25.4240     9.6000 h1         1 P5I       0.051200
     33 H7          18.3650   -24.2930     8.5730 h1         1 P5I       0.051200
     34 H8          23.5530   -25.7060    -0.9590 ha         1 P5I       0.124000
     35 H9          26.1880   -25.7730    -4.3580 ha         1 P5I       0.124000
     36 H10         20.1270   -24.2800     6.9620 hn         1 P5I       0.296500
     37 H12         19.6510   -26.1710     5.7870 ho         1 P5I       0.581000
@<TRIPOS>BOND
     1     1    11 ar  
     2     1    19 ar  
     3     1    27 1   
     4     2    12 2   
     5     2    13 1   
     6     2    28 1   
     7     3     5 ar  
     8     3    13 1   
     9     3    14 ar  
    10     4    14 ar  
    11     4    15 ar  
    12     4    29 1   
    13     5    16 ar  
    14     5    30 1   
    15     6    11 ar  
    16     6    17 ar  
    17     6    31 1   
    18     7    10 1   
    19     7    18 1   
    20     7    21 2   
    21     8     9 1   
    22     8    18 1   
    23     8    32 1   
    24     8    33 1   
    25     9    22 1   
    26     9    23 1   
    27    10    17 ar  
    28    10    19 ar  
    29    11    12 1   
    30    12    24 1   
    31    13    20 2   
    32    14    34 1   
    33    15    16 ar  
    34    15    35 1   
    35    16    26 1   
    36    17    25 1   
    37    18    36 1   
    38    20    24 1   
    39    25    37 1   
@<TRIPOS>SUBSTRUCTURE
     1 P5I         1 TEMP              0 ****  ****    0 ROOT
