@<TRIPOS>MOLECULE
P5J
   56    61     1     0     0
SMALL
No Charge or Current Charge


@<TRIPOS>ATOM
      1 C1           4.4360     0.6400     0.4620 cc         1 P5J       0.460500
      2 C2           4.9270     1.8450     1.1200 cc         1 P5J      -0.214000
      3 C3           4.1320     2.9520     1.3940 cd         1 P5J      -0.031000
      4 C5           2.4400     1.6220     0.3230 cd         1 P5J       0.382500
      5 C7           1.1000     1.7880     0.0870 cc         1 P5J      -0.202800
      6 C8           0.8050     3.0550     0.6740 cc         1 P5J       0.394500
      7 C11          0.5730    -0.2810    -1.3240 ca         1 P5J      -0.059000
      8 C12         -0.3640    -1.1890    -1.8580 ca         1 P5J      -0.147000
      9 C15         -1.2250     0.9620    -0.2280 ca         1 P5J      -0.052000
     10 C16         -3.6690     0.0010    -0.6130 c5         1 P5J      -0.073700
     11 C17         -4.0460    -1.2520    -1.5030 c          1 P5J       0.566000
     12 C21         -5.5570    -0.2790     1.1810 ca         1 P5J      -0.080300
     13 C23         -7.6160    -1.5610     1.4650 ca         1 P5J      -0.110000
     14 C24         -8.3150    -0.3810     1.7690 ca         1 P5J      -0.107000
     15 C27         -4.3250     1.2880    -1.1790 c3         1 P5J      -0.069100
     16 C31          6.9420    -2.6410    -0.2780 ca         1 P5J       0.153300
     17 C33          4.8600    -1.6860    -0.4230 ca         1 P5J       0.146400
     18 C34          7.8440    -3.8320    -0.5530 c3         1 P5J      -0.138400
     19 N4           2.8280     2.7900     0.9540 na         1 P5J       0.115900
     20 N6           3.1740     0.4840     0.0550 nd         1 P5J      -0.654000
     21 N9           1.8350     3.7080     1.2050 nd         1 P5J      -0.566100
     22 C10          0.1610     0.8000    -0.4900 ca         1 P5J      -0.030800
     23 C13         -1.7090    -0.9920    -1.5500 ca         1 P5J      -0.027000
     24 C14         -2.1440     0.0470    -0.7650 ca         1 P5J      -0.146300
     25 N19         -2.8240    -1.7120    -1.9450 ns         1 P5J      -0.148000
     26 C20         -4.0600    -0.2260     0.8800 c3         1 P5J      -0.009100
     27 C22         -6.2420    -1.5110     1.1760 ca         1 P5J      -0.095000
     28 C25         -7.6370     0.8490     1.7880 ca         1 P5J      -0.110000
     29 C26         -6.2620     0.8990     1.4990 ca         1 P5J      -0.095000
     30 C28          5.3330    -0.5080     0.2090 ca         1 P5J      -0.274500
     31 C29          6.7030    -0.5190     0.5680 ca         1 P5J       0.146400
     32 N30          7.5030    -1.5760     0.3270 nb         1 P5J      -0.184000
     33 N32          5.6570    -2.7460    -0.6650 nb         1 P5J      -0.184000
     34 H1           5.9610     1.8970     1.4280 ha         1 P5J       0.144000
     35 H2           4.4210     3.8700     1.8910 h4         1 P5J       0.166000
     36 H3          -0.1660     3.5290     0.7260 h4         1 P5J       0.051800
     37 H4           1.6130    -0.4160    -1.6010 ha         1 P5J       0.129000
     38 H5          -0.0480    -2.0090    -2.4990 ha         1 P5J       0.123000
     39 H6          -1.5870     1.7740     0.3960 ha         1 P5J       0.115000
     40 H7          -8.1390    -2.5150     1.4550 ha         1 P5J       0.111000
     41 H8          -9.3790    -0.4200     1.9940 ha         1 P5J       0.111000
     42 H9          -5.4180     1.2070    -1.2070 hc         1 P5J       0.047033
     43 H10         -4.0670     2.1670    -0.5750 hc         1 P5J       0.047033
     44 H11         -3.9870     1.4810    -2.2040 hc         1 P5J       0.047033
     45 H12          3.8270    -1.8020    -0.7470 h4         1 P5J       0.034100
     46 H13          8.3220    -3.7380    -1.5340 hc         1 P5J       0.063700
     47 H14          8.6370    -3.9160     0.2000 hc         1 P5J       0.063700
     48 H15          7.2810    -4.7730    -0.5430 hc         1 P5J       0.063700
     49 H16         -2.7500    -2.5070    -2.5670 hn         1 P5J       0.171000
     50 H17         -3.5880    -1.1510     1.2360 hc         1 P5J       0.053700
     51 H18         -3.6100     0.5680     1.4900 hc         1 P5J       0.053700
     52 H19         -5.7100    -2.4310     0.9450 ha         1 P5J       0.108500
     53 H20         -8.1750     1.7630     2.0280 ha         1 P5J       0.111000
     54 H21         -5.7460     1.8560     1.5200 ha         1 P5J       0.108500
     55 H22          7.1960     0.3170     1.0560 h4         1 P5J       0.034100
     56 O18         -5.1390    -1.7180    -1.8040 o          1 P5J      -0.514000
@<TRIPOS>BOND
     1     1     2 1   
     2     1    20 2   
     3     1    30 1   
     4     2     3 2   
     5     2    34 1   
     6     3    19 1   
     7     3    35 1   
     8     4     5 2   
     9     4    19 1   
    10     4    20 1   
    11     5     6 1   
    12     5    22 1   
    13     6    21 2   
    14     6    36 1   
    15     7     8 ar  
    16     7    22 ar  
    17     7    37 1   
    18     8    23 ar  
    19     8    38 1   
    20     9    22 ar  
    21     9    24 ar  
    22     9    39 1   
    23    10    11 1   
    24    10    15 1   
    25    10    24 1   
    26    10    26 1   
    27    11    25 1   
    28    11    56 2   
    29    12    26 1   
    30    12    27 ar  
    31    12    29 ar  
    32    13    14 ar  
    33    13    27 ar  
    34    13    40 1   
    35    14    28 ar  
    36    14    41 1   
    37    15    42 1   
    38    15    43 1   
    39    15    44 1   
    40    16    18 1   
    41    16    32 ar  
    42    16    33 ar  
    43    17    30 ar  
    44    17    33 ar  
    45    17    45 1   
    46    18    46 1   
    47    18    47 1   
    48    18    48 1   
    49    19    21 1   
    50    23    24 ar  
    51    23    25 1   
    52    25    49 1   
    53    26    50 1   
    54    26    51 1   
    55    27    52 1   
    56    28    29 ar  
    57    28    53 1   
    58    29    54 1   
    59    30    31 ar  
    60    31    32 ar  
    61    31    55 1   
@<TRIPOS>SUBSTRUCTURE
     1 P5J         1 TEMP              0 ****  ****    0 ROOT
