@<TRIPOS>MOLECULE
P5J
   56    61     1     0     0
SMALL
bcc


@<TRIPOS>ATOM
      1 C1           4.5090     0.6400     0.4680 cc         1 P5J       0.525800
      2 C2           5.0410     1.8420     1.0160 cc         1 P5J      -0.297300
      3 C3           4.2090     2.8970     1.2090 cd         1 P5J       0.001700
      4 C5           2.4400     1.5750     0.3210 cd         1 P5J       0.382500
      5 C7           1.0800     1.7800     0.0860 cc         1 P5J      -0.202800
      6 C8           0.8730     3.0980     0.5250 cc         1 P5J       0.394500
      7 C11          0.4790    -0.2590    -1.2170 ca         1 P5J      -0.077000
      8 C12         -0.4530    -1.1470    -1.7450 ca         1 P5J      -0.165000
      9 C15         -1.2730     1.0750    -0.2420 ca         1 P5J      -0.070000
     10 C16         -3.7020     0.1770    -0.6380 c5         1 P5J      -0.073700
     11 C17         -4.0670    -1.0290    -1.5130 c          1 P5J       0.708500
     12 C21         -5.5140    -0.3060     1.1600 ca         1 P5J      -0.080300
     13 C23         -7.4000    -1.7760     1.5300 ca         1 P5J      -0.128000
     14 C24         -8.2180    -0.6830     1.7880 ca         1 P5J      -0.125000
     15 C27         -4.3740     1.4370    -1.1720 c3         1 P5J      -0.069100
     16 C31          6.8800    -2.7070    -0.2050 ca         1 P5J       0.679300
     17 C33          4.9780    -1.5480    -0.6370 ca         1 P5J       0.474700
     18 C34          7.7270    -3.9050    -0.4780 c3         1 P5J      -0.138400
     19 N4           2.9120     2.7580     0.8660 na         1 P5J       0.065200
     20 N6           3.2480     0.5290     0.1350 nd         1 P5J      -0.654000
     21 N9           1.9660     3.6830     0.9910 nd         1 P5J      -0.566100
     22 C10          0.0960     0.8540    -0.4650 ca         1 P5J      -0.030800
     23 C13         -1.7900    -0.8980    -1.5080 ca         1 P5J       0.065600
     24 C14         -2.2020     0.2060    -0.7650 ca         1 P5J      -0.146300
     25 N19         -2.9050    -1.6160    -1.9160 ns         1 P5J      -0.474100
     26 C20         -4.0580    -0.1080     0.8460 c3         1 P5J      -0.009100
     27 C22         -6.0610    -1.5860     1.2190 ca         1 P5J      -0.113000
     28 C25         -7.6830     0.5980     1.7420 ca         1 P5J      -0.128000
     29 C26         -6.3410     0.7810     1.4360 ca         1 P5J      -0.113000
     30 C28          5.3610    -0.5330     0.2380 ca         1 P5J      -0.405100
     31 C29          6.5830    -0.7310     0.8690 ca         1 P5J       0.474700
     32 N30          7.3330    -1.8010     0.6540 nb         1 P5J      -0.710000
     33 N32          5.7210    -2.6160    -0.8580 nb         1 P5J      -0.710000
     34 H1           6.0850     1.9470     1.2660 ha         1 P5J       0.162000
     35 H2           4.5130     3.8500     1.6160 h4         1 P5J       0.184000
     36 H3          -0.0520     3.6560     0.5110 h4         1 P5J       0.051800
     37 H4           1.5280    -0.4450    -1.4010 ha         1 P5J       0.147000
     38 H5          -0.1280    -2.0030    -2.3220 ha         1 P5J       0.141000
     39 H6          -1.5970     1.9240     0.3490 ha         1 P5J       0.133000
     40 H7          -7.8040    -2.7790     1.5760 ha         1 P5J       0.129000
     41 H8          -9.2630    -0.8290     2.0300 ha         1 P5J       0.129000
     42 H9          -5.4590     1.3470    -1.1400 hc         1 P5J       0.047033
     43 H10         -4.0860     2.3030    -0.5740 hc         1 P5J       0.047033
     44 H11         -4.0780     1.6290    -2.2030 hc         1 P5J       0.047033
     45 H12          4.0410    -1.4810    -1.1780 h4         1 P5J       0.034100
     46 H13          8.1940    -3.8150    -1.4610 hc         1 P5J       0.063700
     47 H14          8.5150    -4.0070     0.2640 hc         1 P5J       0.063700
     48 H15          7.1240    -4.8120    -0.4910 hc         1 P5J       0.063700
     49 H16         -2.8740    -2.4290    -2.5130 hn         1 P5J       0.337500
     50 H17         -3.4910    -0.9840     1.1730 hc         1 P5J       0.053700
     51 H18         -3.6750     0.7370     1.4240 hc         1 P5J       0.053700
     52 H19         -5.4310    -2.4460     1.0280 ha         1 P5J       0.126500
     53 H20         -8.3080     1.4560     1.9530 ha         1 P5J       0.129000
     54 H21         -5.9290     1.7830     1.4210 ha         1 P5J       0.126500
     55 H22          6.9700    -0.0160     1.5860 h4         1 P5J       0.034100
     56 O18         -5.1830    -1.3990    -1.8070 o          1 P5J      -0.589500
@<TRIPOS>BOND
     1     1     2 1   
     2     1    20 2   
     3     1    30 1   
     4     2     3 2   
     5     2    34 1   
     6     3    19 1   
     7     3    35 1   
     8     4     5 2   
     9     4    19 1   
    10     4    20 1   
    11     5     6 1   
    12     5    22 1   
    13     6    21 2   
    14     6    36 1   
    15     7     8 ar  
    16     7    22 ar  
    17     7    37 1   
    18     8    23 ar  
    19     8    38 1   
    20     9    22 ar  
    21     9    24 ar  
    22     9    39 1   
    23    10    11 1   
    24    10    15 1   
    25    10    24 1   
    26    10    26 1   
    27    11    25 1   
    28    11    56 2   
    29    12    26 1   
    30    12    27 ar  
    31    12    29 ar  
    32    13    14 ar  
    33    13    27 ar  
    34    13    40 1   
    35    14    28 ar  
    36    14    41 1   
    37    15    42 1   
    38    15    43 1   
    39    15    44 1   
    40    16    18 1   
    41    16    32 ar  
    42    16    33 ar  
    43    17    30 ar  
    44    17    33 ar  
    45    17    45 1   
    46    18    46 1   
    47    18    47 1   
    48    18    48 1   
    49    19    21 1   
    50    23    24 ar  
    51    23    25 1   
    52    25    49 1   
    53    26    50 1   
    54    26    51 1   
    55    27    52 1   
    56    28    29 ar  
    57    28    53 1   
    58    29    54 1   
    59    30    31 ar  
    60    31    32 ar  
    61    31    55 1   
@<TRIPOS>SUBSTRUCTURE
     1 P5J         1 TEMP              0 ****  ****    0 ROOT
