@<TRIPOS>MOLECULE
P5K
   60    63     1     0     0
SMALL
abcg2


@<TRIPOS>ATOM
      1 C1          49.3910    27.3080   -17.0020 cc         1 P5K      -0.071000
      2 C2          50.5610    28.1260   -16.9170 cc         1 P5K      -0.257600
      3 C3          50.8000    28.8140   -18.0870 cd         1 P5K      -0.011400
      4 S4          49.5780    28.4850   -19.2730 ss         1 P5K       0.283000
      5 C5          48.7340    27.3980   -18.1880 cd         1 P5K      -0.219300
      6 C6          47.4270    26.7650   -18.6160 c3         1 P5K       0.024300
      7 C7          46.3500    27.8570   -18.7740 c3         1 P5K      -0.084433
      8 C8          46.9620    25.7570   -17.5580 c3         1 P5K      -0.084433
      9 C9          47.6050    26.0340   -19.9590 c3         1 P5K      -0.084433
     10 N10         51.8990    29.6160   -18.3310 ns         1 P5K      -0.403100
     11 C11         51.4470    28.1170   -15.7300 c          1 P5K       0.633700
     12 O12         51.7840    27.0590   -15.2010 o          1 P5K      -0.571100
     13 N13         51.9090    29.3290   -15.2770 n          1 P5K      -0.434800
     14 C14         52.0780    30.4100   -19.4430 c          1 P5K       0.658100
     15 N15         53.2590    31.0990   -19.4310 ns         1 P5K      -0.166000
     16 O16         51.2470    30.4660   -20.3420 o          1 P5K      -0.598100
     17 C17         53.6880    32.0020   -20.4250 ca         1 P5K      -0.021000
     18 C18         52.8250    32.9300   -20.9600 ca         1 P5K      -0.107000
     19 C19         53.2720    33.8520   -21.9250 ca         1 P5K      -0.089000
     20 C20         54.5810    33.8600   -22.3310 ca         1 P5K      -0.107000
     21 C21         55.5000    32.9220   -21.8010 ca         1 P5K      -0.024000
     22 C22         55.0530    31.9590   -20.8430 ca         1 P5K      -0.050000
     23 C23         51.1680    30.5780   -15.4420 c6         1 P5K       0.112500
     24 C24         52.8910    29.3450   -14.1980 c6         1 P5K       0.112500
     25 C25         56.8550    32.9040   -22.2100 ca         1 P5K      -0.095000
     26 C26         57.7320    31.9750   -21.7140 ca         1 P5K      -0.104000
     27 C27         57.2860    31.0100   -20.7860 ca         1 P5K      -0.101000
     28 C28         55.9800    31.0020   -20.3620 ca         1 P5K      -0.106000
     29 C29         50.3010    30.8840   -14.2170 c6         1 P5K      -0.338900
     30 C30         52.2400    29.4950   -12.8200 c6         1 P5K      -0.338900
     31 S31         51.2880    31.0050   -12.7350 s6         1 P5K       1.112000
     32 O32         50.4220    30.9740   -11.5700 o          1 P5K      -0.522000
     33 O33         52.1940    32.1330   -12.8790 o          1 P5K      -0.522000
     34 H1          49.0560    26.7030   -16.1720 ha         1 P5K       0.144000
     35 H7          45.4010    27.4050   -19.0720 hc         1 P5K       0.039033
     36 H7A         46.2000    28.3890   -17.8330 hc         1 P5K       0.039033
     37 H7B         46.6350    28.5840   -19.5370 hc         1 P5K       0.039033
     38 H8          46.0250    25.3020   -17.8810 hc         1 P5K       0.039033
     39 H8A         47.6970    24.9630   -17.4160 hc         1 P5K       0.039033
     40 H8B         46.7880    26.2410   -16.5950 hc         1 P5K       0.039033
     41 H9          46.6650    25.5620   -20.2530 hc         1 P5K       0.039033
     42 H9A         47.8950    26.7270   -20.7520 hc         1 P5K       0.039033
     43 H9B         48.3730    25.2620   -19.8820 hc         1 P5K       0.039033
     44 HN10        52.6050    29.6230   -17.6080 hn         1 P5K       0.331500
     45 HN15        53.9080    30.9010   -18.6860 hn         1 P5K       0.155000
     46 H18         51.7970    32.9540   -20.6290 ha         1 P5K       0.134000
     47 H19         52.5710    34.5700   -22.3310 ha         1 P5K       0.120000
     48 H20         54.9310    34.5790   -23.0610 ha         1 P5K       0.118000
     49 H23         51.8780    31.3880   -15.6140 h1         1 P5K       0.078450
     50 H23A        50.5130    30.5140   -16.3030 h1         1 P5K       0.078450
     51 H24         53.4490    28.4140   -14.2220 h1         1 P5K       0.078450
     52 H24A        53.5800    30.1720   -14.3770 h1         1 P5K       0.078450
     53 H25         57.1850    33.6420   -22.9320 ha         1 P5K       0.116000
     54 H26         58.7650    31.9720   -22.0380 ha         1 P5K       0.117000
     55 H27         57.9780    30.2670   -20.4110 ha         1 P5K       0.115000
     56 H28         55.6590    30.2400   -19.6650 ha         1 P5K       0.105000
     57 H29         49.7960    31.8460   -14.3170 h1         1 P5K       0.115200
     58 H29A        49.5640    30.0980   -14.0440 h1         1 P5K       0.115200
     59 H30         51.5540    28.6750   -12.6070 h1         1 P5K       0.115200
     60 H30A        52.9870    29.5670   -12.0280 h1         1 P5K       0.115200
@<TRIPOS>BOND
     1     1     2 1   
     2     1     5 2   
     3     1    34 1   
     4     2     3 2   
     5     2    11 1   
     6     3     4 1   
     7     3    10 1   
     8     4     5 1   
     9     5     6 1   
    10     6     7 1   
    11     6     8 1   
    12     6     9 1   
    13     7    35 1   
    14     7    36 1   
    15     7    37 1   
    16     8    38 1   
    17     8    39 1   
    18     8    40 1   
    19     9    41 1   
    20     9    42 1   
    21     9    43 1   
    22    10    14 1   
    23    10    44 1   
    24    11    12 2   
    25    11    13 1   
    26    13    23 1   
    27    13    24 1   
    28    14    15 1   
    29    14    16 2   
    30    15    17 1   
    31    15    45 1   
    32    17    18 ar  
    33    17    22 ar  
    34    18    19 ar  
    35    18    46 1   
    36    19    20 ar  
    37    19    47 1   
    38    20    21 ar  
    39    20    48 1   
    40    21    22 ar  
    41    21    25 ar  
    42    22    28 ar  
    43    23    29 1   
    44    23    49 1   
    45    23    50 1   
    46    24    30 1   
    47    24    51 1   
    48    24    52 1   
    49    25    26 ar  
    50    25    53 1   
    51    26    27 ar  
    52    26    54 1   
    53    27    28 ar  
    54    27    55 1   
    55    28    56 1   
    56    29    31 1   
    57    29    57 1   
    58    29    58 1   
    59    30    31 1   
    60    30    59 1   
    61    30    60 1   
    62    31    32 2   
    63    31    33 2   
@<TRIPOS>SUBSTRUCTURE
     1 P5K         1 TEMP              0 ****  ****    0 ROOT
