@<TRIPOS>MOLECULE
P5K
   60    63     1     0     0
SMALL
No Charge or Current Charge


@<TRIPOS>ATOM
      1 C1          49.1180    27.2230   -17.1140 cc         1 P5K      -0.071000
      2 C2          50.2290    28.1150   -17.0800 cc         1 P5K      -0.257600
      3 C3          50.3190    28.8720   -18.2330 cd         1 P5K      -0.011400
      4 S4          48.9370    28.5830   -19.3200 ss         1 P5K       0.283000
      5 C5          48.3140    27.3280   -18.2250 cd         1 P5K      -0.219300
      6 C6          47.0530    26.5460   -18.5720 c3         1 P5K       0.024300
      7 C7          45.8610    27.5270   -18.7160 c3         1 P5K      -0.084433
      8 C8          46.7120    25.5120   -17.4660 c3         1 P5K      -0.084433
      9 C9          47.2680    25.7880   -19.9070 c3         1 P5K      -0.084433
     10 N10         51.4390    29.6310   -18.5580 ns         1 P5K      -0.403100
     11 C11         51.1920    28.0820   -15.9370 c          1 P5K       0.633700
     12 O12         51.3290    27.0830   -15.2430 o          1 P5K      -0.571100
     13 N13         51.9340    29.2560   -15.6530 n          1 P5K      -0.434800
     14 C14         51.6610    30.4260   -19.6680 c          1 P5K       0.658100
     15 N15         52.9190    31.0100   -19.6440 ns         1 P5K      -0.166000
     16 O16         50.8410    30.5800   -20.5620 o          1 P5K      -0.598100
     17 C17         53.5610    31.9310   -20.5220 ca         1 P5K      -0.021000
     18 C18         52.8260    32.7000   -21.4530 ca         1 P5K      -0.107000
     19 C19         53.4720    33.6140   -22.3000 ca         1 P5K      -0.089000
     20 C20         54.8610    33.7800   -22.2260 ca         1 P5K      -0.107000
     21 C21         55.6110    33.0350   -21.3010 ca         1 P5K      -0.024000
     22 C22         54.9690    32.1080   -20.4420 ca         1 P5K      -0.050000
     23 C23         51.3380    30.6200   -15.7330 c6         1 P5K       0.112500
     24 C24         53.2020    29.1880   -14.8830 c6         1 P5K       0.112500
     25 C25         57.0060    33.2180   -21.2350 ca         1 P5K      -0.095000
     26 C26         57.7740    32.4850   -20.3180 ca         1 P5K      -0.104000
     27 C27         57.1500    31.5630   -19.4650 ca         1 P5K      -0.101000
     28 C28         55.7590    31.3730   -19.5240 ca         1 P5K      -0.106000
     29 C29         50.9550    31.1440   -14.3360 c6         1 P5K      -0.338900
     30 C30         52.9910    29.5660   -13.4060 c6         1 P5K      -0.338900
     31 S31         52.3760    31.2480   -13.2360 s6         1 P5K       1.112000
     32 O32         51.9000    31.4450   -11.8620 o          1 P5K      -0.522000
     33 O33         53.3570    32.1740   -13.8150 o          1 P5K      -0.522000
     34 H1          48.9340    26.5280   -16.3000 ha         1 P5K       0.144000
     35 H7          44.9310    26.9850   -18.9280 hc         1 P5K       0.039033
     36 H7A         45.7170    28.0990   -17.7910 hc         1 P5K       0.039033
     37 H7B         46.0260    28.2390   -19.5330 hc         1 P5K       0.039033
     38 H8          45.8040    24.9510   -17.7200 hc         1 P5K       0.039033
     39 H8A         47.5270    24.7890   -17.3380 hc         1 P5K       0.039033
     40 H8B         46.5380    26.0090   -16.5030 hc         1 P5K       0.039033
     41 H9          46.3870    25.1850   -20.1620 hc         1 P5K       0.039033
     42 H9A         47.4470    26.4820   -20.7360 hc         1 P5K       0.039033
     43 H9B         48.1300    25.1140   -19.8360 hc         1 P5K       0.039033
     44 HN10        52.2150    29.6130   -17.9090 hn         1 P5K       0.331500
     45 HN15        53.4880    30.7450   -18.8520 hn         1 P5K       0.155000
     46 H18         51.7460    32.6160   -21.5250 ha         1 P5K       0.134000
     47 H19         52.8920    34.1980   -23.0110 ha         1 P5K       0.120000
     48 H20         55.3520    34.4920   -22.8860 ha         1 P5K       0.118000
     49 H23         52.0500    31.3090   -16.2130 h1         1 P5K       0.078450
     50 H23A        50.4260    30.6150   -16.3460 h1         1 P5K       0.078450
     51 H24         53.6220    28.1740   -14.9460 h1         1 P5K       0.078450
     52 H24A        53.9420    29.8620   -15.3420 h1         1 P5K       0.078450
     53 H25         57.4970    33.9310   -21.8950 ha         1 P5K       0.116000
     54 H26         58.8510    32.6290   -20.2710 ha         1 P5K       0.117000
     55 H27         57.7450    30.9930   -18.7550 ha         1 P5K       0.115000
     56 H28         55.3140    30.6480   -18.8490 ha         1 P5K       0.105000
     57 H29         50.5350    32.1560   -14.3870 h1         1 P5K       0.115200
     58 H29A        50.2400    30.4730   -13.8450 h1         1 P5K       0.115200
     59 H30         52.2460    28.9170   -12.9340 h1         1 P5K       0.115200
     60 H30A        53.9300    29.5260   -12.8410 h1         1 P5K       0.115200
@<TRIPOS>BOND
     1     1     2 1   
     2     1     5 2   
     3     1    34 1   
     4     2     3 2   
     5     2    11 1   
     6     3     4 1   
     7     3    10 1   
     8     4     5 1   
     9     5     6 1   
    10     6     7 1   
    11     6     8 1   
    12     6     9 1   
    13     7    35 1   
    14     7    36 1   
    15     7    37 1   
    16     8    38 1   
    17     8    39 1   
    18     8    40 1   
    19     9    41 1   
    20     9    42 1   
    21     9    43 1   
    22    10    14 1   
    23    10    44 1   
    24    11    12 2   
    25    11    13 1   
    26    13    23 1   
    27    13    24 1   
    28    14    15 1   
    29    14    16 2   
    30    15    17 1   
    31    15    45 1   
    32    17    18 ar  
    33    17    22 ar  
    34    18    19 ar  
    35    18    46 1   
    36    19    20 ar  
    37    19    47 1   
    38    20    21 ar  
    39    20    48 1   
    40    21    22 ar  
    41    21    25 ar  
    42    22    28 ar  
    43    23    29 1   
    44    23    49 1   
    45    23    50 1   
    46    24    30 1   
    47    24    51 1   
    48    24    52 1   
    49    25    26 ar  
    50    25    53 1   
    51    26    27 ar  
    52    26    54 1   
    53    27    28 ar  
    54    27    55 1   
    55    28    56 1   
    56    29    31 1   
    57    29    57 1   
    58    29    58 1   
    59    30    31 1   
    60    30    59 1   
    61    30    60 1   
    62    31    32 2   
    63    31    33 2   
@<TRIPOS>SUBSTRUCTURE
     1 P5K         1 TEMP              0 ****  ****    0 ROOT
