@<TRIPOS>MOLECULE
P5M
   36    38     1     0     0
SMALL
No Charge or Current Charge


@<TRIPOS>ATOM
      1 O30          4.7320    -1.9720     0.0150 oh         1 P5M      -0.220000
      2 C2           4.0860    -0.7740    -0.0780 ca         1 P5M       0.225000
      3 C3           2.6780    -0.6990     0.0130 ca         1 P5M      -0.180000
      4 C9           1.8930    -1.8370     0.1960 c2         1 P5M      -0.014000
      5 C10          0.5500    -1.7050     0.2800 c2         1 P5M      -0.026000
      6 O27         -0.2050    -2.8130     0.4440 oh         1 P5M      -0.218000
      7 C1           4.8460     0.3910    -0.2650 ca         1 P5M      -0.345000
      8 C6           4.2170     1.6390    -0.3640 ca         1 P5M       0.242000
      9 O29          4.9580     2.7670    -0.5460 oh         1 P5M      -0.201000
     10 C5           2.8250     1.7270    -0.2770 ca         1 P5M      -0.231000
     11 C4           2.0620     0.5670    -0.0900 ca         1 P5M       0.163000
     12 O12          0.6970     0.6650    -0.0040 os         1 P5M      -0.058000
     13 C11         -0.0230    -0.4810     0.1870 c2         1 P5M       0.262000
     14 C14         -1.3950    -0.2790     0.2660 ca         1 P5M      -0.103000
     15 C15         -2.1210    -0.6810     1.4080 ca         1 P5M      -0.130000
     16 C16         -3.5070    -0.4600     1.4880 ca         1 P5M       0.068000
     17 O22         -4.1900    -0.8620     2.6050 oh         1 P5M      -0.207000
     18 C19         -2.0740     0.3630    -0.7910 ca         1 P5M      -0.132000
     19 C18         -3.4680     0.5890    -0.7180 ca         1 P5M       0.014000
     20 O21         -4.1670     1.2110    -1.7390 os         1 P5M      -0.213000
     21 C23         -3.5320     1.6730    -2.9420 c3         1 P5M      -0.061000
     22 C17         -4.1820     0.1730     0.4240 ca         1 P5M       0.136000
     23 O24         -5.5320     0.3930     0.4930 oh         1 P5M      -0.188000
     24 H1           5.6880    -1.8100    -0.0710 ho         1 P5M       0.266000
     25 H2           2.3440    -2.8290     0.2680 ha         1 P5M       0.184000
     26 H3           0.3840    -3.5890     0.4790 ho         1 P5M       0.256000
     27 H4           5.9300     0.3270    -0.3330 ha         1 P5M       0.166000
     28 H5           5.8960     2.5120    -0.5820 ho         1 P5M       0.260000
     29 H6           2.3360     2.6940    -0.3540 ha         1 P5M       0.194000
     30 H7          -1.6040    -1.1620     2.2370 ha         1 P5M       0.162000
     31 H8          -3.5630    -1.2770     3.2250 ho         1 P5M       0.236000
     32 H9          -1.5060     0.6760    -1.6650 ha         1 P5M       0.154000
     33 H10         -2.7650     2.4260    -2.7180 h1         1 P5M       0.093000
     34 H11         -3.0620     0.8410    -3.4820 h1         1 P5M       0.093000
     35 H12         -4.2710     2.1340    -3.6100 h1         1 P5M       0.093000
     36 H13         -5.8040     0.8380    -0.3290 ho         1 P5M       0.261000
@<TRIPOS>BOND
     1     1     2 1   
     2     1    24 1   
     3     2     3 ar  
     4     2     7 ar  
     5     3     4 1   
     6     3    11 ar  
     7     4     5 1   
     8     4    25 1   
     9     5     6 1   
    10     5    13 1   
    11     6    26 1   
    12     7     8 ar  
    13     7    27 1   
    14     8     9 1   
    15     8    10 ar  
    16     9    28 1   
    17    10    11 ar  
    18    10    29 1   
    19    11    12 1   
    20    12    13 1   
    21    13    14 1   
    22    14    15 ar  
    23    14    18 ar  
    24    15    16 ar  
    25    15    30 1   
    26    16    17 1   
    27    16    22 ar  
    28    17    31 1   
    29    18    19 ar  
    30    18    32 1   
    31    19    20 1   
    32    19    22 ar  
    33    20    21 1   
    34    21    33 1   
    35    21    34 1   
    36    21    35 1   
    37    22    23 1   
    38    23    36 1   
@<TRIPOS>SUBSTRUCTURE
     1 P5M         1 TEMP              0 ****  ****    0 ROOT
