@<TRIPOS>MOLECULE
P5M
   36    38     1     0     0
SMALL
bcc


@<TRIPOS>ATOM
      1 O30          4.8350    -1.7250     0.4830 oh         1 P5M      -0.220000
      2 C2           4.1680    -0.6650     0.0440 ca         1 P5M       0.225000
      3 C3           2.7510    -0.7200     0.1670 ca         1 P5M      -0.180000
      4 C9           2.0480    -1.7990     0.7010 c2         1 P5M      -0.014000
      5 C10          0.6680    -1.7810     0.7880 c2         1 P5M      -0.026000
      6 O27         -0.0480    -2.8050     1.2600 oh         1 P5M      -0.218000
      7 C1           4.7590     0.4450    -0.5050 ca         1 P5M      -0.345000
      8 C6           3.9740     1.5260    -0.9530 ca         1 P5M       0.242000
      9 O29          4.5330     2.6040    -1.4890 oh         1 P5M      -0.201000
     10 C5           2.5890     1.5080    -0.8540 ca         1 P5M      -0.231000
     11 C4           2.0170     0.3860    -0.2930 ca         1 P5M       0.163000
     12 O12          0.6850     0.3510    -0.1770 os         1 P5M      -0.058000
     13 C11         -0.0180    -0.6490     0.3280 c2         1 P5M       0.262000
     14 C14         -1.4440    -0.4310     0.2900 ca         1 P5M      -0.103000
     15 C15         -2.3060    -1.0510     1.2020 ca         1 P5M      -0.130000
     16 C16         -3.6640    -0.7890     1.1650 ca         1 P5M       0.068000
     17 O22         -4.5470    -1.3270     2.0230 oh         1 P5M      -0.207000
     18 C19         -1.9620     0.4600    -0.6660 ca         1 P5M      -0.132000
     19 C18         -3.3190     0.6990    -0.7130 ca         1 P5M       0.014000
     20 O21         -3.9420     1.5050    -1.5900 os         1 P5M      -0.213000
     21 C23         -3.1620     2.2260    -2.5270 c3         1 P5M      -0.061000
     22 C17         -4.1850     0.0800     0.2040 ca         1 P5M       0.136000
     23 O24         -5.5010     0.2950     0.1940 oh         1 P5M      -0.188000
     24 H1           5.7870    -1.6230     0.3540 ho         1 P5M       0.266000
     25 H2           2.5830    -2.6780     1.0420 ha         1 P5M       0.184000
     26 H3           0.5240    -3.5420     1.5080 ho         1 P5M       0.256000
     27 H4           5.8380     0.4940    -0.6000 ha         1 P5M       0.166000
     28 H5           5.4950     2.5280    -1.5160 ho         1 P5M       0.260000
     29 H6           1.9870     2.3380    -1.1980 ha         1 P5M       0.194000
     30 H7          -1.9290    -1.7080     1.9720 ha         1 P5M       0.162000
     31 H8          -4.0970    -1.9070     2.6480 ho         1 P5M       0.236000
     32 H9          -1.3050     0.9330    -1.3810 ha         1 P5M       0.154000
     33 H10         -2.4530     2.8930    -2.0310 h1         1 P5M       0.093000
     34 H11         -2.6160     1.5570    -3.1970 h1         1 P5M       0.093000
     35 H12         -3.8570     2.8210    -3.1130 h1         1 P5M       0.093000
     36 H13         -5.7330     0.9230    -0.5040 ho         1 P5M       0.261000
@<TRIPOS>BOND
     1     1     2 1   
     2     1    24 1   
     3     2     3 1   
     4     2     7 1   
     5     3     4 1   
     6     3    11 1   
     7     4     5 1   
     8     4    25 1   
     9     5     6 1   
    10     5    13 1   
    11     6    26 1   
    12     7     8 1   
    13     7    27 1   
    14     8     9 1   
    15     8    10 1   
    16     9    28 1   
    17    10    11 1   
    18    10    29 1   
    19    11    12 1   
    20    12    13 1   
    21    13    14 1   
    22    14    15 1   
    23    14    18 1   
    24    15    16 1   
    25    15    30 1   
    26    16    17 1   
    27    16    22 1   
    28    17    31 1   
    29    18    19 1   
    30    18    32 1   
    31    19    20 1   
    32    19    22 1   
    33    20    21 1   
    34    21    33 1   
    35    21    34 1   
    36    21    35 1   
    37    22    23 1   
    38    23    36 1   
@<TRIPOS>SUBSTRUCTURE
     1 P5M         1 TEMP              0 ****  ****    0 ROOT
