@<TRIPOS>MOLECULE
P5N
   22    23     1     0     0
SMALL
bcc


@<TRIPOS>ATOM
      1 C10        -15.1640   -19.8820    -0.1530 cc         1 P5N      -0.255600
      2 N12        -14.4790   -21.6830    -1.2980 nd         1 P5N      -0.670000
      3 C13        -15.3800   -22.0450    -0.4270 cc         1 P5N       0.399400
      4 C03        -18.7600   -21.1190     3.3270 ca         1 P5N      -0.073300
      5 C04        -17.8120   -22.1320     3.2010 ca         1 P5N      -0.114000
      6 C05        -16.8390   -22.0920     2.2150 ca         1 P5N      -0.132000
      7 C06        -16.8120   -21.0340     1.3150 ca         1 P5N      -0.001200
      8 C07        -17.7490   -20.0140     1.4210 ca         1 P5N      -0.132000
      9 C08        -18.7030   -20.0590     2.4250 ca         1 P5N      -0.114000
     10 C11        -14.3330   -20.3330    -1.1350 cd         1 P5N       0.296200
     11 N09        -15.8320   -20.9920     0.3000 na         1 P5N      -0.124000
     12 H1         -15.3170   -18.9040     0.2690 h4         1 P5N       0.177000
     13 H2         -15.7620   -23.0450    -0.2860 h5         1 P5N       0.056100
     14 H3         -20.7100   -21.6960     4.0160 hc         1 P5N       0.046033
     15 H4         -19.4780   -21.7200     5.2660 hc         1 P5N       0.046033
     16 H5         -20.1320   -20.1830     4.6990 hc         1 P5N       0.046033
     17 H6         -17.8190   -22.9640     3.8940 ha         1 P5N       0.136000
     18 H7         -16.0950   -22.8760     2.1610 ha         1 P5N       0.144000
     19 H8         -17.7480   -19.1910     0.7180 ha         1 P5N       0.144000
     20 H9         -19.4240   -19.2540     2.4980 ha         1 P5N       0.136000
     21 H10        -13.6370   -19.7570    -1.7250 h4         1 P5N       0.039100
     22 C01        -19.8220   -21.1790     4.3850 c3         1 P5N      -0.048800
@<TRIPOS>BOND
     1     1    10 2   
     2     1    11 1   
     3     1    12 1   
     4     2     3 2   
     5     2    10 1   
     6     3    11 1   
     7     3    13 1   
     8     4     5 ar  
     9     4     9 ar  
    10     4    22 1   
    11     5     6 ar  
    12     5    17 1   
    13     6     7 ar  
    14     6    18 1   
    15     7     8 ar  
    16     7    11 1   
    17     8     9 ar  
    18     8    19 1   
    19     9    20 1   
    20    10    21 1   
    21    14    22 1   
    22    15    22 1   
    23    16    22 1   
@<TRIPOS>SUBSTRUCTURE
     1 P5N         1 TEMP              0 ****  ****    0 ROOT
