@<TRIPOS>MOLECULE
P5N
   22    23     1     0     0
SMALL
No Charge or Current Charge


@<TRIPOS>ATOM
      1 C10        -15.2050   -19.8530    -0.1730 cc         1 P5N      -0.223000
      2 N12        -14.4210   -21.6890    -1.2740 nd         1 P5N      -0.670000
      3 C13        -15.3270   -22.0910    -0.3870 cc         1 P5N       0.399400
      4 C03        -18.7650   -21.1230     3.3180 ca         1 P5N      -0.073300
      5 C04        -17.8360   -22.1700     3.1880 ca         1 P5N      -0.096000
      6 C05        -16.8540   -22.1290     2.1830 ca         1 P5N      -0.114000
      7 C06        -16.7880   -21.0380     1.2910 ca         1 P5N      -0.001200
      8 C07        -17.7240   -19.9910     1.4240 ca         1 P5N      -0.114000
      9 C08        -18.7050   -20.0340     2.4290 ca         1 P5N      -0.096000
     10 C11        -14.3440   -20.3090    -1.1420 cd         1 P5N       0.230900
     11 N09        -15.8120   -20.9950     0.2890 na         1 P5N      -0.073300
     12 H1         -15.4040   -18.8570     0.2000 h4         1 P5N       0.159000
     13 H2         -15.6640   -23.1050    -0.2070 h5         1 P5N       0.056100
     14 H3         -20.7350   -21.6720     4.0410 hc         1 P5N       0.046033
     15 H4         -19.4760   -21.7160     5.2870 hc         1 P5N       0.046033
     16 H5         -20.1130   -20.1630     4.7310 hc         1 P5N       0.046033
     17 H6         -17.8720   -23.0190     3.8690 ha         1 P5N       0.118000
     18 H7         -16.1390   -22.9460     2.1110 ha         1 P5N       0.126000
     19 H8         -17.7030   -19.1440     0.7420 ha         1 P5N       0.126000
     20 H9         -19.4220   -19.2200     2.5150 ha         1 P5N       0.118000
     21 H10        -13.6700   -19.7200    -1.7530 h4         1 P5N       0.039100
     22 C01        -19.8300   -21.1710     4.4040 c3         1 P5N      -0.048800
@<TRIPOS>BOND
     1     1    10 2   
     2     1    11 1   
     3     1    12 1   
     4     2     3 2   
     5     2    10 1   
     6     3    11 1   
     7     3    13 1   
     8     4     5 ar  
     9     4     9 ar  
    10     4    22 1   
    11     5     6 ar  
    12     5    17 1   
    13     6     7 ar  
    14     6    18 1   
    15     7     8 ar  
    16     7    11 1   
    17     8     9 ar  
    18     8    19 1   
    19     9    20 1   
    20    10    21 1   
    21    14    22 1   
    22    15    22 1   
    23    16    22 1   
@<TRIPOS>SUBSTRUCTURE
     1 P5N         1 TEMP              0 ****  ****    0 ROOT
