@<TRIPOS>MOLECULE
P5O
   33    34     1     0     0
SMALL
No Charge or Current Charge


@<TRIPOS>ATOM
      1 CAA        -23.1660     1.1440   -13.4800 ca         1 P5O      -0.057800
      2 CAB        -23.7950     1.3580   -14.7250 ca         1 P5O      -0.151000
      3 CAC        -22.2630     0.0730   -13.3420 ca         1 P5O      -0.090000
      4 CAD        -23.5300     0.5050   -15.8220 ca         1 P5O       0.110100
      5 CAE        -21.9930    -0.7800   -14.4250 ca         1 P5O      -0.176000
      6 CAF        -22.6220    -0.5710   -15.6630 ca         1 P5O       0.114100
      7 CAG        -23.4260     2.0300   -12.3050 ce         1 P5O      -0.129200
      8 CAH        -24.4010     2.9700   -12.1330 cf         1 P5O      -0.165200
      9 CAI        -24.6690     3.8500   -10.9770 ca         1 P5O       0.021200
     10 CAJ        -23.8680     3.8260    -9.8160 ca         1 P5O      -0.169500
     11 CAK        -25.7560     4.7440   -11.0270 ca         1 P5O      -0.169500
     12 CAL        -24.1520     4.6760    -8.7370 ca         1 P5O       0.172600
     13 CAM        -26.0350     5.5920    -9.9450 ca         1 P5O       0.172600
     14 CAN        -25.2350     5.5610    -8.7970 ca         1 P5O      -0.292000
     15 CAS        -25.0690     1.7540   -17.3110 c3         1 P5O       0.145900
     16 OAO        -23.3700     4.6400    -7.6250 oh         1 P5O      -0.537600
     17 OAP        -27.0890     6.4490   -10.0120 oh         1 P5O      -0.537600
     18 OAQ        -22.3420    -1.4170   -16.7030 oh         1 P5O      -0.515100
     19 OAR        -24.1330     0.6900   -17.0570 os         1 P5O      -0.329100
     20 H1         -24.4790     2.1910   -14.8370 ha         1 P5O       0.120000
     21 H2         -21.7680    -0.1040   -12.3890 ha         1 P5O       0.116000
     22 H3         -21.2940    -1.6020   -14.2940 ha         1 P5O       0.116000
     23 H4         -22.7250     1.8690   -11.4870 ha         1 P5O       0.174000
     24 H6         -25.1080     3.1110   -12.9500 ha         1 P5O       0.173000
     25 H8         -23.0210     3.1520    -9.7370 ha         1 P5O       0.130500
     26 H9         -26.3900     4.7850   -11.9090 ha         1 P5O       0.130500
     27 H10        -25.4530     6.2180    -7.9590 ha         1 P5O       0.115000
     28 H11        -25.4200     1.7100   -18.3490 h1         1 P5O       0.041700
     29 H12        -25.9430     1.6700   -16.6530 h1         1 P5O       0.041700
     30 H13        -24.5990     2.7330   -17.1530 h1         1 P5O       0.041700
     31 H14        -23.7200     5.2970    -6.9870 ho         1 P5O       0.463000
     32 H15        -27.1240     6.9530    -9.1720 ho         1 P5O       0.463000
     33 H16        -21.6970    -2.0880   -16.3950 ho         1 P5O       0.458000
@<TRIPOS>BOND
     1     1     2 ar  
     2     1     3 ar  
     3     1     7 1   
     4     2     4 ar  
     5     2    20 1   
     6     3     5 ar  
     7     3    21 1   
     8     4     6 ar  
     9     4    19 1   
    10     5     6 ar  
    11     5    22 1   
    12     6    18 1   
    13     7     8 2   
    14     7    23 1   
    15     8     9 1   
    16     8    24 1   
    17     9    10 ar  
    18     9    11 ar  
    19    10    12 ar  
    20    10    25 1   
    21    11    13 ar  
    22    11    26 1   
    23    12    14 ar  
    24    12    16 1   
    25    13    14 ar  
    26    13    17 1   
    27    14    27 1   
    28    15    19 1   
    29    15    28 1   
    30    15    29 1   
    31    15    30 1   
    32    16    31 1   
    33    17    32 1   
    34    18    33 1   
@<TRIPOS>SUBSTRUCTURE
     1 P5O         1 TEMP              0 ****  ****    0 ROOT
