@<TRIPOS>MOLECULE
P5O
   33    34     1     0     0
SMALL
abcg2


@<TRIPOS>ATOM
      1 CAA        -23.2080     1.1760   -13.4370 ca         1 P5O      -0.057800
      2 CAB        -23.8630     1.3410   -14.6720 ca         1 P5O      -0.151000
      3 CAC        -22.2450     0.1700   -13.3300 ca         1 P5O      -0.090000
      4 CAD        -23.5640     0.5360   -15.7580 ca         1 P5O       0.110100
      5 CAE        -21.9380    -0.6430   -14.4160 ca         1 P5O      -0.176000
      6 CAF        -22.5830    -0.4700   -15.6300 ca         1 P5O       0.114100
      7 CAG        -23.4880     2.0110   -12.2740 ce         1 P5O      -0.129200
      8 CAH        -24.3650     3.0250   -12.1980 cf         1 P5O      -0.165200
      9 CAI        -24.6280     3.8580   -11.0250 ca         1 P5O       0.021200
     10 CAJ        -23.9190     3.7250    -9.8230 ca         1 P5O      -0.169500
     11 CAK        -25.6300     4.8310   -11.1220 ca         1 P5O      -0.169500
     12 CAL        -24.2200     4.5500    -8.7490 ca         1 P5O       0.172600
     13 CAM        -25.9200     5.6500   -10.0350 ca         1 P5O       0.172600
     14 CAN        -25.2200     5.5200    -8.8390 ca         1 P5O      -0.292000
     15 CAS        -25.1530     1.6360   -17.1610 c3         1 P5O       0.145900
     16 OAO        -23.4990     4.3780    -7.6020 oh         1 P5O      -0.537600
     17 OAP        -26.9100     6.5770   -10.1940 oh         1 P5O      -0.537600
     18 OAQ        -22.3190    -1.2300   -16.7300 oh         1 P5O      -0.515100
     19 OAR        -24.1520     0.6350   -16.9800 os         1 P5O      -0.329100
     20 H1         -24.6110     2.1120   -14.7770 ha         1 P5O       0.120000
     21 H2         -21.7300     0.0210   -12.3890 ha         1 P5O       0.116000
     22 H3         -21.1870    -1.4200   -14.3270 ha         1 P5O       0.116000
     23 H4         -22.9020     1.7560   -11.3960 ha         1 P5O       0.174000
     24 H6         -24.9590     3.2800   -13.0690 ha         1 P5O       0.173000
     25 H8         -23.1340     2.9910    -9.7080 ha         1 P5O       0.130500
     26 H9         -26.1890     4.9540   -12.0410 ha         1 P5O       0.130500
     27 H10        -25.4460     6.1600    -7.9930 ha         1 P5O       0.115000
     28 H11        -25.4840     1.5420   -18.1920 h1         1 P5O       0.041700
     29 H12        -25.9970     1.4740   -16.4860 h1         1 P5O       0.041700
     30 H13        -24.7420     2.6350   -16.9960 h1         1 P5O       0.041700
     31 H14        -23.7950     5.0050    -6.9290 ho         1 P5O       0.463000
     32 H15        -27.0220     7.0880    -9.3800 ho         1 P5O       0.463000
     33 H16        -21.6360    -1.8810   -16.5140 ho         1 P5O       0.458000
@<TRIPOS>BOND
     1     1     2 ar  
     2     1     3 ar  
     3     1     7 1   
     4     2     4 ar  
     5     2    20 1   
     6     3     5 ar  
     7     3    21 1   
     8     4     6 ar  
     9     4    19 1   
    10     5     6 ar  
    11     5    22 1   
    12     6    18 1   
    13     7     8 2   
    14     7    23 1   
    15     8     9 1   
    16     8    24 1   
    17     9    10 ar  
    18     9    11 ar  
    19    10    12 ar  
    20    10    25 1   
    21    11    13 ar  
    22    11    26 1   
    23    12    14 ar  
    24    12    16 1   
    25    13    14 ar  
    26    13    17 1   
    27    14    27 1   
    28    15    19 1   
    29    15    28 1   
    30    15    29 1   
    31    15    30 1   
    32    16    31 1   
    33    17    32 1   
    34    18    33 1   
@<TRIPOS>SUBSTRUCTURE
     1 P5O         1 TEMP              0 ****  ****    0 ROOT
