@<TRIPOS>MOLECULE
P5Q
   21    22     1     0     0
SMALL
abcg2


@<TRIPOS>ATOM
      1 C01        -19.6290   -21.2100     4.3530 c3         1 P5Q      -0.048800
      2 C02        -18.5850   -21.1290     3.2790 ca         1 P5Q      -0.070300
      3 C03        -17.6250   -22.1280     3.1330 ca         1 P5Q      -0.099000
      4 C04        -16.6700   -22.0740     2.1300 ca         1 P5Q      -0.103500
      5 C05        -16.6730   -21.0070     1.2430 ca         1 P5Q       0.005800
      6 C07        -15.1480   -19.8470    -0.3350 cc         1 P5Q       0.420400
      7 C09        -14.3180   -21.5530    -1.1930 cd         1 P5Q       0.519900
      8 C11        -17.6270   -20.0040     1.3580 ca         1 P5Q      -0.103500
      9 C12        -18.5630   -20.0670     2.3780 ca         1 P5Q      -0.099000
     10 N06        -15.6990   -20.9350     0.2240 na         1 P5Q       0.037500
     11 N08        -14.2690   -20.2040    -1.2400 nd         1 P5Q      -0.697000
     12 N10        -15.1670   -22.0370    -0.3210 nc         1 P5Q      -0.532800
     13 H1         -20.5180   -21.7320     3.9920 hc         1 P5Q       0.046367
     14 H2         -19.2670   -21.7550     5.2240 hc         1 P5Q       0.046367
     15 H3         -19.9450   -20.2200     4.6790 hc         1 P5Q       0.046367
     16 H4         -17.6120   -22.9650     3.8210 ha         1 P5Q       0.119000
     17 H5         -15.9250   -22.8530     2.0450 ha         1 P5Q       0.132000
     18 H7         -13.7140   -22.1930    -1.8170 h5         1 P5Q       0.065100
     19 H8         -17.6590   -19.1830     0.6540 ha         1 P5Q       0.132000
     20 H9         -19.2990   -19.2780     2.4620 ha         1 P5Q       0.119000
     21 H6         -15.3990   -18.8380    -0.0460 h5         1 P5Q       0.066100
@<TRIPOS>BOND
     1     1     2 1   
     2     1    13 1   
     3     1    14 1   
     4     1    15 1   
     5     2     3 ar  
     6     2     9 ar  
     7     3     4 ar  
     8     3    16 1   
     9     4     5 ar  
    10     4    17 1   
    11     5     8 ar  
    12     5    10 1   
    13     6    10 1   
    14     6    11 2   
    15     6    21 1   
    16     7    11 1   
    17     7    12 2   
    18     7    18 1   
    19     8     9 ar  
    20     8    19 1   
    21     9    20 1   
    22    10    12 1   
@<TRIPOS>SUBSTRUCTURE
     1 P5Q         1 TEMP              0 ****  ****    0 ROOT
