@<TRIPOS>MOLECULE
P5Q
   21    22     1     0     0
SMALL
No Charge or Current Charge


@<TRIPOS>ATOM
      1 C01        -19.6580   -21.1970     4.3570 c3         1 P5Q      -0.048800
      2 C02        -18.5980   -21.1350     3.2670 ca         1 P5Q      -0.070300
      3 C03        -17.6050   -22.1280     3.1860 ca         1 P5Q      -0.099000
      4 C04        -16.6270   -22.0730     2.1770 ca         1 P5Q      -0.103500
      5 C05        -16.6290   -21.0240     1.2330 ca         1 P5Q       0.005800
      6 C07        -15.0670   -19.8180    -0.2300 cc         1 P5Q       0.420400
      7 C09        -14.3760   -21.5560    -1.2880 cd         1 P5Q       0.519900
      8 C11        -17.6300   -20.0330     1.3160 ca         1 P5Q      -0.103500
      9 C12        -18.6080   -20.0900     2.3260 ca         1 P5Q      -0.099000
     10 N06        -15.6520   -20.9680     0.2320 na         1 P5Q       0.037500
     11 N08        -14.2390   -20.1720    -1.2020 nd         1 P5Q      -0.697000
     12 N10        -15.2440   -22.0780    -0.4260 nc         1 P5Q      -0.532800
     13 H1         -20.5320   -21.7660     4.0190 hc         1 P5Q       0.046367
     14 H2         -19.2730   -21.6800     5.2630 hc         1 P5Q       0.046367
     15 H3         -20.0000   -20.1940     4.6390 hc         1 P5Q       0.046367
     16 H4         -17.5880   -22.9440     3.9050 ha         1 P5Q       0.119000
     17 H5         -15.8640   -22.8470     2.1320 ha         1 P5Q       0.132000
     18 H7         -13.8160   -22.1410    -2.0090 h5         1 P5Q       0.065100
     19 H8         -17.6640   -19.2190     0.5950 ha         1 P5Q       0.132000
     20 H9         -19.3750   -19.3200     2.3740 ha         1 P5Q       0.119000
     21 H6         -15.2660   -18.8270     0.1590 h5         1 P5Q       0.066100
@<TRIPOS>BOND
     1     1     2 1   
     2     1    13 1   
     3     1    14 1   
     4     1    15 1   
     5     2     3 ar  
     6     2     9 ar  
     7     3     4 ar  
     8     3    16 1   
     9     4     5 ar  
    10     4    17 1   
    11     5     8 ar  
    12     5    10 1   
    13     6    10 1   
    14     6    11 2   
    15     6    21 1   
    16     7    11 1   
    17     7    12 2   
    18     7    18 1   
    19     8     9 ar  
    20     8    19 1   
    21     9    20 1   
    22    10    12 1   
@<TRIPOS>SUBSTRUCTURE
     1 P5Q         1 TEMP              0 ****  ****    0 ROOT
