@<TRIPOS>MOLECULE
P5R
  122   121     1     0     0
SMALL
abcg2


@<TRIPOS>ATOM
      1 O1         -28.0310     0.4870    -0.7940 oh         1 P5R      -0.715500
      2 C1         -27.9080     1.4450    -1.8200 c3         1 P5R       0.144600
      3 C2         -26.5530     2.1140    -1.7470 c3         1 P5R       0.165600
      4 O2         -25.4720     1.3070    -2.1460 os         1 P5R      -0.458500
      5 C3         -24.9920     0.3880    -1.1940 c3         1 P5R       0.159600
      6 C4         -23.5330     0.1200    -1.5150 c3         1 P5R       0.153100
      7 O3         -23.0620    -0.8300    -0.5870 os         1 P5R      -0.461000
      8 C5         -21.7760    -1.3290    -0.8530 c3         1 P5R       0.161100
      9 C6         -20.6760    -0.3580    -0.4440 c3         1 P5R       0.143100
     10 O4         -19.4470    -1.0080    -0.6420 os         1 P5R      -0.464000
     11 C7         -18.3390    -0.2070    -0.3190 c3         1 P5R       0.159600
     12 C8         -17.0870    -1.0270    -0.5600 c3         1 P5R       0.160100
     13 O5         -15.9760    -0.2300    -0.2400 os         1 P5R      -0.465500
     14 C9         -14.7550    -0.9000    -0.4180 c3         1 P5R       0.160100
     15 C10        -13.6380     0.0470    -0.0250 c3         1 P5R       0.160100
     16 O6         -12.4220    -0.6310    -0.2050 os         1 P5R      -0.465000
     17 C11        -11.2990     0.1570     0.0980 c3         1 P5R       0.160100
     18 C12        -10.0640    -0.6870    -0.1480 c3         1 P5R       0.160100
     19 O7          -8.9350     0.0950     0.1440 os         1 P5R      -0.465000
     20 C13         -7.7290    -0.5950    -0.0620 c3         1 P5R       0.160100
     21 C14         -6.5880     0.3390     0.2870 c3         1 P5R       0.160100
     22 O8          -5.3880    -0.3590     0.0760 os         1 P5R      -0.465000
     23 C15         -4.2460     0.4110     0.3530 c3         1 P5R       0.160100
     24 C16         -3.0300    -0.4560     0.0890 c3         1 P5R       0.160100
     25 O9          -1.8820     0.3080     0.3580 os         1 P5R      -0.464500
     26 C17         -0.6930    -0.4030     0.1310 c3         1 P5R       0.160100
     27 C18          0.4700     0.5160     0.4480 c3         1 P5R       0.160100
     28 O10          1.6560    -0.2010     0.2190 os         1 P5R      -0.464500
     29 C19          2.8130     0.5500     0.4810 c3         1 P5R       0.160100
     30 C20          4.0110    -0.3360     0.2060 c3         1 P5R       0.160100
     31 O11          5.1730     0.4100     0.4660 os         1 P5R      -0.465000
     32 C21          6.3500    -0.3190     0.2310 c3         1 P5R       0.160100
     33 C22          7.5290     0.5840     0.5340 c3         1 P5R       0.160100
     34 O12          8.7020    -0.1510     0.2970 os         1 P5R      -0.465000
     35 C23          9.8720     0.5830     0.5530 c3         1 P5R       0.160100
     36 C24         11.0550    -0.3200     0.2700 c3         1 P5R       0.160100
     37 O13         12.2290     0.4090     0.5240 os         1 P5R      -0.465000
     38 C25         13.3940    -0.3380     0.2880 c3         1 P5R       0.160100
     39 C26         14.5870     0.5470     0.5900 c3         1 P5R       0.160100
     40 O14         15.7490    -0.2070     0.3560 os         1 P5R      -0.465500
     41 C27         16.9290     0.5090     0.6130 c3         1 P5R       0.160100
     42 C28         18.0980    -0.4190     0.3440 c3         1 P5R       0.159600
     43 O15         19.2820     0.2920     0.5990 os         1 P5R      -0.464000
     44 C29         20.4360    -0.4790     0.3830 c3         1 P5R       0.143100
     45 C30         21.6430     0.3890     0.6790 c3         1 P5R       0.161100
     46 O16         22.7910    -0.3950     0.4790 os         1 P5R      -0.461000
     47 C31         23.9850     0.3010     0.7300 c3         1 P5R       0.153100
     48 C32         25.1320    -0.6740     0.5490 c3         1 P5R       0.159600
     49 O17         26.3280     0.0200     0.7880 os         1 P5R      -0.458500
     50 C33         27.4650    -0.7980     0.6680 c3         1 P5R       0.165600
     51 C34         28.7120     0.0130     0.9110 c3         1 P5R       0.144600
     52 O18         28.8640     0.9590    -0.1220 oh         1 P5R      -0.715500
     53 H1         -28.8480    -0.0010    -0.9310 ho         1 P5R       0.503000
     54 H2         -28.0320     0.9970    -2.8140 h1         1 P5R       0.025700
     55 H3         -28.6680     2.2340    -1.7300 h1         1 P5R       0.025700
     56 H4         -26.5680     2.9690    -2.4280 h1         1 P5R       0.040200
     57 H5         -26.3930     2.5110    -0.7350 h1         1 P5R       0.040200
     58 H6         -25.0750     0.7940    -0.1770 h1         1 P5R       0.039450
     59 H7         -25.5540    -0.5520    -1.2160 h1         1 P5R       0.039450
     60 H8         -23.4380    -0.2600    -2.5420 h1         1 P5R       0.034950
     61 H9         -22.9680     1.0590    -1.4630 h1         1 P5R       0.034950
     62 H10        -21.6710    -2.2500    -0.2740 h1         1 P5R       0.046700
     63 H11        -21.6650    -1.5920    -1.9130 h1         1 P5R       0.046700
     64 H12        -20.7240     0.5660    -1.0370 h1         1 P5R       0.032950
     65 H13        -20.8090    -0.0730     0.6090 h1         1 P5R       0.032950
     66 H14        -18.3170     0.7020    -0.9370 h1         1 P5R       0.035450
     67 H15        -18.3790     0.1150     0.7310 h1         1 P5R       0.035450
     68 H16        -17.1100    -1.9350     0.0600 h1         1 P5R       0.035950
     69 H17        -17.0490    -1.3530    -1.6090 h1         1 P5R       0.035950
     70 H18        -14.7110    -1.8070     0.2030 h1         1 P5R       0.035950
     71 H19        -14.6260    -1.2150    -1.4630 h1         1 P5R       0.035950
     72 H20        -13.6800     0.9540    -0.6450 h1         1 P5R       0.035700
     73 H21        -13.7640     0.3630     1.0200 h1         1 P5R       0.035700
     74 H22        -11.2690     1.0580    -0.5320 h1         1 P5R       0.035700
     75 H23        -11.3230     0.4930     1.1440 h1         1 P5R       0.035700
     76 H24        -10.0940    -1.5860     0.4840 h1         1 P5R       0.035700
     77 H25        -10.0480    -1.0270    -1.1930 h1         1 P5R       0.035700
     78 H26         -7.6790    -1.4960     0.5650 h1         1 P5R       0.035950
     79 H27         -7.6370    -0.9220    -1.1070 h1         1 P5R       0.035950
     80 H28         -6.6350     1.2400    -0.3400 h1         1 P5R       0.035700
     81 H29         -6.6760     0.6660     1.3330 h1         1 P5R       0.035700
     82 H30         -4.2120     1.3080    -0.2820 h1         1 P5R       0.035950
     83 H31         -4.2440     0.7530     1.3970 h1         1 P5R       0.035950
     84 H32         -3.0650    -1.3510     0.7250 h1         1 P5R       0.035950
     85 H33         -3.0370    -0.8000    -0.9550 h1         1 P5R       0.035950
     86 H34         -0.6430    -1.3000     0.7640 h1         1 P5R       0.035700
     87 H35         -0.6280    -0.7390    -0.9130 h1         1 P5R       0.035700
     88 H36          0.4230     1.4140    -0.1850 h1         1 P5R       0.035700
     89 H37          0.4090     0.8530     1.4930 h1         1 P5R       0.035700
     90 H38          2.8550     1.4460    -0.1550 h1         1 P5R       0.035950
     91 H39          2.8320     0.8940     1.5250 h1         1 P5R       0.035950
     92 H40          3.9680    -1.2310     0.8440 h1         1 P5R       0.035950
     93 H41          3.9900    -0.6800    -0.8370 h1         1 P5R       0.035950
     94 H42          6.3920    -1.2150     0.8660 h1         1 P5R       0.035700
     95 H43          6.4000    -0.6600    -0.8130 h1         1 P5R       0.035700
     96 H44          7.4900     1.4790    -0.1020 h1         1 P5R       0.035950
     97 H45          7.4820     0.9240     1.5780 h1         1 P5R       0.035950
     98 H46          9.9220     1.4780    -0.0830 h1         1 P5R       0.035700
     99 H47          9.9020     0.9250     1.5970 h1         1 P5R       0.035700
    100 H48         11.0030    -1.2160     0.9050 h1         1 P5R       0.035700
    101 H49         11.0230    -0.6620    -0.7740 h1         1 P5R       0.035700
    102 H50         13.4240    -1.2340     0.9240 h1         1 P5R       0.035700
    103 H51         13.4380    -0.6800    -0.7550 h1         1 P5R       0.035700
    104 H52         14.5620     1.4420    -0.0470 h1         1 P5R       0.035950
    105 H53         14.5440     0.8900     1.6330 h1         1 P5R       0.035950
    106 H54         16.9990     1.3970    -0.0300 h1         1 P5R       0.035950
    107 H55         16.9600     0.8580     1.6540 h1         1 P5R       0.035950
    108 H56         18.0260    -1.3070     0.9870 h1         1 P5R       0.035450
    109 H57         18.0660    -0.7690    -0.6970 h1         1 P5R       0.035450
    110 H58         20.4450    -1.3650     1.0330 h1         1 P5R       0.032950
    111 H59         20.4800    -0.8390    -0.6550 h1         1 P5R       0.032950
    112 H60         21.6440     1.2680     0.0200 h1         1 P5R       0.046700
    113 H61         21.5940     0.7580     1.7130 h1         1 P5R       0.046700
    114 H62         24.0990     1.1490     0.0410 h1         1 P5R       0.034950
    115 H63         23.9970     0.7080     1.7510 h1         1 P5R       0.034950
    116 H64         25.0170    -1.5170     1.2460 h1         1 P5R       0.039450
    117 H65         25.1130    -1.0910    -0.4680 h1         1 P5R       0.039450
    118 H66         27.4380    -1.6190     1.3980 h1         1 P5R       0.040200
    119 H67         27.5100    -1.2630    -0.3290 h1         1 P5R       0.040200
    120 H68         28.6470     0.4900     1.8980 h1         1 P5R       0.025700
    121 H69         29.5550    -0.6890     0.9530 h1         1 P5R       0.025700
    122 H70         29.6460     1.4840     0.0650 ho         1 P5R       0.503000
@<TRIPOS>BOND
     1     1     2 1   
     2     1    53 1   
     3     2     3 1   
     4     2    54 1   
     5     2    55 1   
     6     3     4 1   
     7     3    56 1   
     8     3    57 1   
     9     4     5 1   
    10     5     6 1   
    11     5    58 1   
    12     5    59 1   
    13     6     7 1   
    14     6    60 1   
    15     6    61 1   
    16     7     8 1   
    17     8     9 1   
    18     8    62 1   
    19     8    63 1   
    20     9    10 1   
    21     9    64 1   
    22     9    65 1   
    23    10    11 1   
    24    11    12 1   
    25    11    66 1   
    26    11    67 1   
    27    12    13 1   
    28    12    68 1   
    29    12    69 1   
    30    13    14 1   
    31    14    15 1   
    32    14    70 1   
    33    14    71 1   
    34    15    16 1   
    35    15    72 1   
    36    15    73 1   
    37    16    17 1   
    38    17    18 1   
    39    17    74 1   
    40    17    75 1   
    41    18    19 1   
    42    18    76 1   
    43    18    77 1   
    44    19    20 1   
    45    20    21 1   
    46    20    78 1   
    47    20    79 1   
    48    21    22 1   
    49    21    80 1   
    50    21    81 1   
    51    22    23 1   
    52    23    24 1   
    53    23    82 1   
    54    23    83 1   
    55    24    25 1   
    56    24    84 1   
    57    24    85 1   
    58    25    26 1   
    59    26    27 1   
    60    26    86 1   
    61    26    87 1   
    62    27    28 1   
    63    27    88 1   
    64    27    89 1   
    65    28    29 1   
    66    29    30 1   
    67    29    90 1   
    68    29    91 1   
    69    30    31 1   
    70    30    92 1   
    71    30    93 1   
    72    31    32 1   
    73    32    33 1   
    74    32    94 1   
    75    32    95 1   
    76    33    34 1   
    77    33    96 1   
    78    33    97 1   
    79    34    35 1   
    80    35    36 1   
    81    35    98 1   
    82    35    99 1   
    83    36    37 1   
    84    36   100 1   
    85    36   101 1   
    86    37    38 1   
    87    38    39 1   
    88    38   102 1   
    89    38   103 1   
    90    39    40 1   
    91    39   104 1   
    92    39   105 1   
    93    40    41 1   
    94    41    42 1   
    95    41   106 1   
    96    41   107 1   
    97    42    43 1   
    98    42   108 1   
    99    42   109 1   
   100    43    44 1   
   101    44    45 1   
   102    44   110 1   
   103    44   111 1   
   104    45    46 1   
   105    45   112 1   
   106    45   113 1   
   107    46    47 1   
   108    47    48 1   
   109    47   114 1   
   110    47   115 1   
   111    48    49 1   
   112    48   116 1   
   113    48   117 1   
   114    49    50 1   
   115    50    51 1   
   116    50   118 1   
   117    50   119 1   
   118    51    52 1   
   119    51   120 1   
   120    51   121 1   
   121    52   122 1   
@<TRIPOS>SUBSTRUCTURE
     1 P5R         1 TEMP              0 ****  ****    0 ROOT
