@<TRIPOS>MOLECULE
P5R
  122   121     1     0     0
SMALL
No Charge or Current Charge


@<TRIPOS>ATOM
      1 O1         -28.6400     1.0720    -0.5290 oh         1 P5R      -0.715500
      2 C1         -28.3690     1.8550    -1.7070 c3         1 P5R       0.144600
      3 C2         -27.1290     2.7800    -1.5210 c3         1 P5R       0.165600
      4 O2         -25.8990     2.0800    -1.8350 os         1 P5R      -0.458500
      5 C3         -25.5100     1.0300    -0.9230 c3         1 P5R       0.159600
      6 C4         -24.1100     0.5280    -1.3370 c3         1 P5R       0.153100
      7 O3         -23.7150    -0.5160    -0.4210 os         1 P5R      -0.461000
      8 C5         -22.4560    -1.1690    -0.7090 c3         1 P5R       0.161100
      9 C6         -21.2760    -0.1950    -0.4680 c3         1 P5R       0.143100
     10 O4         -20.0480    -0.9370    -0.5900 os         1 P5R      -0.464000
     11 C7         -18.8550    -0.1560    -0.3850 c3         1 P5R       0.159600
     12 C8         -17.6330    -1.0840    -0.5470 c3         1 P5R       0.160100
     13 O5         -16.4400    -0.3030    -0.3410 os         1 P5R      -0.465500
     14 C9         -15.2120    -1.0460    -0.4630 c3         1 P5R       0.160100
     15 C10        -14.0330    -0.0800    -0.2190 c3         1 P5R       0.160100
     16 O6         -12.8050    -0.8230    -0.3410 os         1 P5R      -0.465000
     17 C11        -11.6120    -0.0410    -0.1360 c3         1 P5R       0.160100
     18 C12        -10.3890    -0.9690    -0.2980 c3         1 P5R       0.160100
     19 O7          -9.1970    -0.1870    -0.0950 os         1 P5R      -0.465000
     20 C13         -7.9680    -0.9300    -0.2170 c3         1 P5R       0.160100
     21 C14         -6.7900     0.0370     0.0250 c3         1 P5R       0.160100
     22 O8          -5.5610    -0.7060    -0.0980 os         1 P5R      -0.465000
     23 C15         -4.3690     0.0770     0.1040 c3         1 P5R       0.160100
     24 C16         -3.1450    -0.8510    -0.0590 c3         1 P5R       0.160100
     25 O9          -1.9530    -0.0670     0.1400 os         1 P5R      -0.464500
     26 C17         -0.7250    -0.8090     0.0160 c3         1 P5R       0.160100
     27 C18          0.4540     0.1590     0.2530 c3         1 P5R       0.160100
     28 O10          1.6830    -0.5830     0.1270 os         1 P5R      -0.464500
     29 C19          2.8750     0.2020     0.3240 c3         1 P5R       0.160100
     30 C20          4.0990    -0.7240     0.1570 c3         1 P5R       0.160100
     31 O11          5.2910     0.0610     0.3520 os         1 P5R      -0.465000
     32 C21          6.5200    -0.6800     0.2230 c3         1 P5R       0.160100
     33 C22          7.6980     0.2900     0.4560 c3         1 P5R       0.160100
     34 O12          8.9270    -0.4500     0.3250 os         1 P5R      -0.465000
     35 C23         10.1190     0.3350     0.5170 c3         1 P5R       0.160100
     36 C24         11.3440    -0.5890     0.3460 c3         1 P5R       0.160100
     37 O13         12.5360     0.1970     0.5370 os         1 P5R      -0.465000
     38 C25         13.7650    -0.5420     0.4050 c3         1 P5R       0.160100
     39 C26         14.9430     0.4290     0.6340 c3         1 P5R       0.160100
     40 O14         16.1720    -0.3100     0.5000 os         1 P5R      -0.465500
     41 C27         17.3640     0.4770     0.6890 c3         1 P5R       0.160100
     42 C28         18.5890    -0.4470     0.5150 c3         1 P5R       0.159600
     43 O15         19.7810     0.3410     0.7040 os         1 P5R      -0.464000
     44 C29         21.0100    -0.3980     0.5690 c3         1 P5R       0.143100
     45 C30         22.1870     0.5740     0.7960 c3         1 P5R       0.161100
     46 O16         23.4170    -0.1660     0.6610 os         1 P5R      -0.461000
     47 C31         24.6090     0.6200     0.8490 c3         1 P5R       0.153100
     48 C32         25.8330    -0.3050     0.6750 c3         1 P5R       0.159600
     49 O17         27.0260     0.4800     0.8650 os         1 P5R      -0.458500
     50 C33         28.2570    -0.2620     0.7280 c3         1 P5R       0.165600
     51 C34         29.4580     0.6970     0.9490 c3         1 P5R       0.144600
     52 O18         29.5740     1.6630    -0.1150 oh         1 P5R      -0.715500
     53 H1         -29.4490     0.5400    -0.7160 ho         1 P5R       0.503000
     54 H2         -28.2100     1.2060    -2.5790 h1         1 P5R       0.025700
     55 H3         -29.2360     2.4920    -1.9290 h1         1 P5R       0.025700
     56 H4         -27.2390     3.6320    -2.2030 h1         1 P5R       0.040200
     57 H5         -27.1080     3.1810    -0.4990 h1         1 P5R       0.040200
     58 H6         -25.4700     1.4050     0.1090 h1         1 P5R       0.039450
     59 H7         -26.2130     0.1890    -0.9650 h1         1 P5R       0.039450
     60 H8         -24.1530     0.1460    -2.3650 h1         1 P5R       0.034950
     61 H9         -23.4070     1.3700    -1.3050 h1         1 P5R       0.034950
     62 H10        -22.3320    -2.0370    -0.0480 h1         1 P5R       0.046700
     63 H11        -22.4310    -1.5310    -1.7450 h1         1 P5R       0.046700
     64 H12        -21.3050     0.6170    -1.2060 h1         1 P5R       0.032950
     65 H13        -21.3640     0.2410     0.5360 h1         1 P5R       0.032950
     66 H14        -18.7940     0.6580    -1.1200 h1         1 P5R       0.035450
     67 H15        -18.8480     0.2820     0.6220 h1         1 P5R       0.035450
     68 H16        -17.6940    -1.8970     0.1890 h1         1 P5R       0.035950
     69 H17        -17.6400    -1.5220    -1.5530 h1         1 P5R       0.035950
     70 H18        -15.1750    -1.8580     0.2750 h1         1 P5R       0.035950
     71 H19        -15.1210    -1.4830    -1.4670 h1         1 P5R       0.035950
     72 H20        -14.0690     0.7320    -0.9580 h1         1 P5R       0.035700
     73 H21        -14.1230     0.3570     0.7840 h1         1 P5R       0.035700
     74 H22        -11.5510     0.7720    -0.8720 h1         1 P5R       0.035700
     75 H23        -11.6040     0.3970     0.8700 h1         1 P5R       0.035700
     76 H24        -10.4500    -1.7820     0.4380 h1         1 P5R       0.035700
     77 H25        -10.3970    -1.4080    -1.3050 h1         1 P5R       0.035700
     78 H26         -7.9310    -1.7410     0.5230 h1         1 P5R       0.035950
     79 H27         -7.8790    -1.3680    -1.2200 h1         1 P5R       0.035950
     80 H28         -6.8280     0.8480    -0.7140 h1         1 P5R       0.035700
     81 H29         -6.8790     0.4750     1.0280 h1         1 P5R       0.035700
     82 H30         -4.3090     0.8890    -0.6330 h1         1 P5R       0.035950
     83 H31         -4.3590     0.5170     1.1100 h1         1 P5R       0.035950
     84 H32         -3.2040    -1.6620     0.6780 h1         1 P5R       0.035950
     85 H33         -3.1550    -1.2910    -1.0650 h1         1 P5R       0.035950
     86 H34         -0.6840    -1.6190     0.7570 h1         1 P5R       0.035700
     87 H35         -0.6370    -1.2490    -0.9870 h1         1 P5R       0.035700
     88 H36          0.4130     0.9690    -0.4860 h1         1 P5R       0.035700
     89 H37          0.3680     0.5970     1.2560 h1         1 P5R       0.035700
     90 H38          2.9310     1.0140    -0.4130 h1         1 P5R       0.035950
     91 H39          2.8870     0.6420     1.3300 h1         1 P5R       0.035950
     92 H40          4.0440    -1.5350     0.8950 h1         1 P5R       0.035950
     93 H41          4.0850    -1.1660    -0.8480 h1         1 P5R       0.035950
     94 H42          6.5640    -1.4890     0.9640 h1         1 P5R       0.035700
     95 H43          6.6040    -1.1200    -0.7790 h1         1 P5R       0.035700
     96 H44          7.6530     1.1000    -0.2850 h1         1 P5R       0.035950
     97 H45          7.6150     0.7290     1.4590 h1         1 P5R       0.035950
     98 H46         10.1720     1.1470    -0.2200 h1         1 P5R       0.035700
     99 H47         10.1350     0.7760     1.5230 h1         1 P5R       0.035700
    100 H48         11.2920    -1.4000     1.0850 h1         1 P5R       0.035700
    101 H49         11.3280    -1.0310    -0.6590 h1         1 P5R       0.035700
    102 H50         13.8120    -1.3510     1.1450 h1         1 P5R       0.035700
    103 H51         13.8460    -0.9820    -0.5980 h1         1 P5R       0.035700
    104 H52         14.8950     1.2390    -0.1070 h1         1 P5R       0.035950
    105 H53         14.8620     0.8680     1.6370 h1         1 P5R       0.035950
    106 H54         17.4140     1.2890    -0.0490 h1         1 P5R       0.035950
    107 H55         17.3820     0.9180     1.6940 h1         1 P5R       0.035950
    108 H56         18.5400    -1.2580     1.2530 h1         1 P5R       0.035450
    109 H57         18.5710    -0.8880    -0.4900 h1         1 P5R       0.035450
    110 H58         21.0590    -1.2070     1.3090 h1         1 P5R       0.032950
    111 H59         21.0900    -0.8370    -0.4340 h1         1 P5R       0.032950
    112 H60         22.1370     1.3840     0.0560 h1         1 P5R       0.046700
    113 H61         22.1060     1.0130     1.8000 h1         1 P5R       0.046700
    114 H62         24.6590     1.4320     0.1110 h1         1 P5R       0.034950
    115 H63         24.6280     1.0610     1.8550 h1         1 P5R       0.034950
    116 H64         25.7810    -1.1180     1.4110 h1         1 P5R       0.039450
    117 H65         25.8140    -0.7450    -0.3310 h1         1 P5R       0.039450
    118 H66         28.3040    -1.0650     1.4750 h1         1 P5R       0.040200
    119 H67         28.3320    -0.7190    -0.2670 h1         1 P5R       0.040200
    120 H68         29.3370     1.2030     1.9160 h1         1 P5R       0.025700
    121 H69         30.3750     0.0950     1.0070 h1         1 P5R       0.025700
    122 H70         30.3120     2.2710     0.1270 ho         1 P5R       0.503000
@<TRIPOS>BOND
     1     1     2 1   
     2     1    53 1   
     3     2     3 1   
     4     2    54 1   
     5     2    55 1   
     6     3     4 1   
     7     3    56 1   
     8     3    57 1   
     9     4     5 1   
    10     5     6 1   
    11     5    58 1   
    12     5    59 1   
    13     6     7 1   
    14     6    60 1   
    15     6    61 1   
    16     7     8 1   
    17     8     9 1   
    18     8    62 1   
    19     8    63 1   
    20     9    10 1   
    21     9    64 1   
    22     9    65 1   
    23    10    11 1   
    24    11    12 1   
    25    11    66 1   
    26    11    67 1   
    27    12    13 1   
    28    12    68 1   
    29    12    69 1   
    30    13    14 1   
    31    14    15 1   
    32    14    70 1   
    33    14    71 1   
    34    15    16 1   
    35    15    72 1   
    36    15    73 1   
    37    16    17 1   
    38    17    18 1   
    39    17    74 1   
    40    17    75 1   
    41    18    19 1   
    42    18    76 1   
    43    18    77 1   
    44    19    20 1   
    45    20    21 1   
    46    20    78 1   
    47    20    79 1   
    48    21    22 1   
    49    21    80 1   
    50    21    81 1   
    51    22    23 1   
    52    23    24 1   
    53    23    82 1   
    54    23    83 1   
    55    24    25 1   
    56    24    84 1   
    57    24    85 1   
    58    25    26 1   
    59    26    27 1   
    60    26    86 1   
    61    26    87 1   
    62    27    28 1   
    63    27    88 1   
    64    27    89 1   
    65    28    29 1   
    66    29    30 1   
    67    29    90 1   
    68    29    91 1   
    69    30    31 1   
    70    30    92 1   
    71    30    93 1   
    72    31    32 1   
    73    32    33 1   
    74    32    94 1   
    75    32    95 1   
    76    33    34 1   
    77    33    96 1   
    78    33    97 1   
    79    34    35 1   
    80    35    36 1   
    81    35    98 1   
    82    35    99 1   
    83    36    37 1   
    84    36   100 1   
    85    36   101 1   
    86    37    38 1   
    87    38    39 1   
    88    38   102 1   
    89    38   103 1   
    90    39    40 1   
    91    39   104 1   
    92    39   105 1   
    93    40    41 1   
    94    41    42 1   
    95    41   106 1   
    96    41   107 1   
    97    42    43 1   
    98    42   108 1   
    99    42   109 1   
   100    43    44 1   
   101    44    45 1   
   102    44   110 1   
   103    44   111 1   
   104    45    46 1   
   105    45   112 1   
   106    45   113 1   
   107    46    47 1   
   108    47    48 1   
   109    47   114 1   
   110    47   115 1   
   111    48    49 1   
   112    48   116 1   
   113    48   117 1   
   114    49    50 1   
   115    50    51 1   
   116    50   118 1   
   117    50   119 1   
   118    51    52 1   
   119    51   120 1   
   120    51   121 1   
   121    52   122 1   
@<TRIPOS>SUBSTRUCTURE
     1 P5R         1 TEMP              0 ****  ****    0 ROOT
