@<TRIPOS>MOLECULE
P5S
  134   133     1     0     0
SMALL
bcc


@<TRIPOS>ATOM
      1 C           -5.5040    -6.2430    -1.4890 c          1 P5S       0.900600
      2 N           -4.8980    -4.4380     0.1900 n8         1 P5S      -0.863800
      3 O           -6.4960    -6.4870    -0.7740 o          1 P5S      -0.857300
      4 C1           0.1440    -3.7130    -2.3270 c3         1 P5S       0.154400
      5 C2           1.2670    -4.3170    -1.5160 c3         1 P5S       0.132100
      6 C3           0.8380    -5.2600    -0.4040 c3         1 P5S       0.205400
      7 CA          -4.4670    -5.2210    -0.9520 c3         1 P5S      -0.012500
      8 CB          -3.1830    -5.9770    -0.6310 c3         1 P5S       0.231400
      9 OG          -2.1220    -5.0940    -0.3250 os         1 P5S      -0.625200
     10 P12         -1.3400    -5.1270     1.1110 p5         1 P5S       1.413800
     11 O13         -1.8290    -4.0630     2.0410 o          1 P5S      -0.831500
     12 O15         -1.2360    -6.5520     1.5750 o          1 P5S      -0.831500
     13 O16          0.1230    -4.5850     0.6010 os         1 P5S      -0.549200
     14 C17         -1.8880    -2.5990    -1.9310 c          1 P5S       0.669100
     15 O18         -2.3000    -2.9330    -3.0170 o          1 P5S      -0.574000
     16 C20         -2.6880    -1.8590    -0.8970 c3         1 P5S      -0.143400
     17 C21         -4.0180    -1.3490    -1.4220 c3         1 P5S      -0.059400
     18 C22         -4.8510    -0.6720    -0.3410 c3         1 P5S      -0.076400
     19 C23         -6.2110    -0.2300    -0.8650 c3         1 P5S      -0.075400
     20 C24         -7.0700     0.5170     0.1480 c3         1 P5S      -0.071400
     21 C25         -8.4170     0.9210    -0.4380 c3         1 P5S      -0.076400
     22 C26         -9.3040     1.7310     0.4990 c3         1 P5S      -0.072400
     23 C27        -10.6290     2.1090    -0.1540 c3         1 P5S      -0.076400
     24 C28        -11.5460     2.9550     0.7190 c3         1 P5S      -0.072400
     25 C29        -12.8490     3.3110     0.0140 c3         1 P5S      -0.076400
     26 C30        -13.7930     4.1700     0.8440 c3         1 P5S      -0.073400
     27 C31        -15.0830     4.5070     0.1050 c3         1 P5S      -0.075400
     28 C32        -16.0460     5.3680     0.9110 c3         1 P5S      -0.073400
     29 C33        -17.3300     5.6900     0.1550 c3         1 P5S      -0.075400
     30 C34        -18.3030     6.5510     0.9500 c3         1 P5S      -0.075400
     31 C35        -19.5890     6.8620     0.1930 c3         1 P5S      -0.075400
     32 C36        -20.5540     7.7210     0.9980 c3         1 P5S      -0.088100
     33 O37          2.0620    -3.2370    -1.0080 os         1 P5S      -0.387900
     34 C38          3.3720    -3.4190    -0.8590 c          1 P5S       0.648100
     35 C39          4.0500    -2.1740    -0.3540 c3         1 P5S      -0.143400
     36 C40          5.5630    -2.2170    -0.5040 c3         1 P5S      -0.067400
     37 C41          6.2320    -0.9270    -0.0460 c3         1 P5S      -0.075400
     38 C42          7.7420    -0.9630    -0.2450 c3         1 P5S      -0.075400
     39 C43          8.4480     0.3260     0.1540 c3         1 P5S      -0.074400
     40 C44          9.9510     0.2700    -0.0910 c3         1 P5S      -0.075400
     41 C45         10.6820     1.5580     0.2640 c3         1 P5S      -0.073400
     42 C46         12.1790     1.4830    -0.0100 c3         1 P5S      -0.075400
     43 O47          3.9320    -4.4590    -1.0980 o          1 P5S      -0.573000
     44 C48         12.9270     2.7680     0.3180 c3         1 P5S      -0.073400
     45 C49         14.4210     2.6790     0.0290 c3         1 P5S      -0.074400
     46 C50         15.1800     3.9610     0.3430 c3         1 P5S      -0.074400
     47 C51         16.6710     3.8630     0.0450 c3         1 P5S      -0.074400
     48 C52         17.4360     5.1430     0.3540 c3         1 P5S      -0.074400
     49 C53         18.9250     5.0400     0.0510 c3         1 P5S      -0.074400
     50 C54         19.6940     6.3190     0.3600 c3         1 P5S      -0.075400
     51 C55         21.1830     6.2160     0.0540 c3         1 P5S      -0.075400
     52 C56         21.9420     7.4980     0.3670 c3         1 P5S      -0.088100
     53 OXT         -5.2430    -6.7580    -2.5960 o          1 P5S      -0.857300
     54 HN          -5.5920    -3.7690    -0.1170 hn         1 P5S       0.314300
     55 HNA         -5.4010    -5.0530     0.8210 hn         1 P5S       0.314300
     56 H1           0.5580    -3.1520    -3.1700 h1         1 P5S       0.045700
     57 H1A         -0.4520    -4.5320    -2.7360 h1         1 P5S       0.045700
     58 H2           1.8540    -4.9120    -2.2230 h1         1 P5S       0.039700
     59 H3           0.2640    -6.0680    -0.8670 h1         1 P5S       0.027200
     60 H3A          1.7290    -5.7230     0.0300 h1         1 P5S       0.027200
     61 HA          -4.2400    -4.5260    -1.7670 h1         1 P5S       0.046700
     62 HB          -3.3650    -6.6800     0.1900 h1         1 P5S       0.028200
     63 HBA         -2.8940    -6.5700    -1.5020 h1         1 P5S       0.028200
     64 H20         -2.8550    -2.5550    -0.0680 hc         1 P5S       0.100700
     65 H20A        -2.0860    -1.0380    -0.4950 hc         1 P5S       0.100700
     66 H21         -3.8590    -0.6470    -2.2460 hc         1 P5S       0.042200
     67 H21A        -4.5900    -2.1820    -1.8400 hc         1 P5S       0.042200
     68 H22         -4.9840    -1.3650     0.4960 hc         1 P5S       0.045700
     69 H22A        -4.3090     0.1930     0.0580 hc         1 P5S       0.045700
     70 H23         -6.0670     0.4090    -1.7440 hc         1 P5S       0.035200
     71 H23A        -6.7580    -1.1090    -1.2220 hc         1 P5S       0.035200
     72 H24         -7.2230    -0.1070     1.0350 hc         1 P5S       0.036200
     73 H24A        -6.5360     1.4100     0.4920 hc         1 P5S       0.036200
     74 H25         -8.2470     1.5000    -1.3530 hc         1 P5S       0.035700
     75 H25A        -8.9550     0.0200    -0.7530 hc         1 P5S       0.035700
     76 H26         -9.4940     1.1620     1.4150 hc         1 P5S       0.034700
     77 H26A        -8.7760     2.6390     0.8100 hc         1 P5S       0.034700
     78 H27        -10.4240     2.6490    -1.0850 hc         1 P5S       0.035700
     79 H27A       -11.1550     1.1950    -0.4500 hc         1 P5S       0.035700
     80 H28        -11.7670     2.4200     1.6490 hc         1 P5S       0.035200
     81 H28A       -11.0270     3.8740     1.0150 hc         1 P5S       0.035200
     82 H29        -12.6180     3.8320    -0.9220 hc         1 P5S       0.036700
     83 H29A       -13.3630     2.3880    -0.2780 hc         1 P5S       0.036700
     84 H30        -14.0340     3.6520     1.7790 hc         1 P5S       0.035700
     85 H30A       -13.2860     5.0970     1.1340 hc         1 P5S       0.035700
     86 H31        -14.8380     5.0190    -0.8320 hc         1 P5S       0.036700
     87 H31A       -15.5850     3.5770    -0.1850 hc         1 P5S       0.036700
     88 H32        -16.2950     4.8580     1.8480 hc         1 P5S       0.035700
     89 H32A       -15.5490     6.3020     1.1980 hc         1 P5S       0.035700
     90 H33        -17.0800     6.1990    -0.7830 hc         1 P5S       0.036700
     91 H33A       -17.8240     4.7550    -0.1330 hc         1 P5S       0.036700
     92 H34        -18.5510     6.0440     1.8900 hc         1 P5S       0.036200
     93 H34A       -17.8130     7.4890     1.2340 hc         1 P5S       0.036200
     94 H35        -19.3410     7.3680    -0.7450 hc         1 P5S       0.036200
     95 H35A       -20.0780     5.9250    -0.0890 hc         1 P5S       0.036200
     96 H36        -21.4720     7.9250     0.4440 hc         1 P5S       0.029033
     97 H36A       -20.8340     7.2290     1.9310 hc         1 P5S       0.029033
     98 H36B       -20.1040     8.6810     1.2570 hc         1 P5S       0.029033
     99 H39          3.6340    -1.3070    -0.8730 hc         1 P5S       0.073200
    100 H39A         3.7730    -2.0480     0.6990 hc         1 P5S       0.073200
    101 H40          5.9710    -3.0580     0.0630 hc         1 P5S       0.047700
    102 H40A         5.8200    -2.3990    -1.5510 hc         1 P5S       0.047700
    103 H41          5.8110    -0.0810    -0.6000 hc         1 P5S       0.037200
    104 H41A         6.0030    -0.7440     1.0090 hc         1 P5S       0.037200
    105 H42          8.1640    -1.7990     0.3230 hc         1 P5S       0.036200
    106 H42A         7.9570    -1.1770    -1.2980 hc         1 P5S       0.036200
    107 H43          8.0190     1.1640    -0.4070 hc         1 P5S       0.036700
    108 H43A         8.2570     0.5400     1.2120 hc         1 P5S       0.036700
    109 H44         10.3810    -0.5600     0.4810 hc         1 P5S       0.036200
    110 H44A        10.1320     0.0320    -1.1450 hc         1 P5S       0.036200
    111 H45         10.2500     2.3900    -0.3040 hc         1 P5S       0.036700
    112 H45A        10.5170     1.7960     1.3210 hc         1 P5S       0.036700
    113 H46         12.6110     0.6550     0.5650 hc         1 P5S       0.036200
    114 H46A        12.3390     1.2310    -1.0640 hc         1 P5S       0.036200
    115 H48         12.4950     3.5970    -0.2540 hc         1 P5S       0.036700
    116 H48A        12.7770     3.0200     1.3740 hc         1 P5S       0.036700
    117 H49         14.8520     1.8510     0.6030 hc         1 P5S       0.036700
    118 H49A        14.5680     2.4200    -1.0260 hc         1 P5S       0.036700
    119 H50         14.7480     4.7890    -0.2310 hc         1 P5S       0.036700
    120 H50A        15.0370     4.2200     1.3980 hc         1 P5S       0.036700
    121 H51         17.1020     3.0350     0.6190 hc         1 P5S       0.036700
    122 H51A        16.8110     3.6020    -1.0100 hc         1 P5S       0.036700
    123 H52         17.0050     5.9720    -0.2190 hc         1 P5S       0.036700
    124 H52A        17.2980     5.4040     1.4090 hc         1 P5S       0.036700
    125 H53         19.3560     4.2110     0.6240 hc         1 P5S       0.036700
    126 H53A        19.0630     4.7800    -1.0040 hc         1 P5S       0.036700
    127 H54         19.2630     7.1490    -0.2110 hc         1 P5S       0.036700
    128 H54A        19.5590     6.5790     1.4160 hc         1 P5S       0.036700
    129 H55         21.6120     5.3860     0.6250 hc         1 P5S       0.035700
    130 H55A        21.3180     5.9580    -1.0010 hc         1 P5S       0.035700
    131 H56         23.0030     7.4060     0.1300 hc         1 P5S       0.029700
    132 H56A        21.5470     8.3390    -0.2060 hc         1 P5S       0.029700
    133 H56B        21.8610     7.7560     1.4250 hc         1 P5S       0.029700
    134 O19         -0.6510    -2.8540    -1.5200 os         1 P5S      -0.381900
@<TRIPOS>BOND
     1     1     3 1   
     2     1     7 1   
     3     1    53 1   
     4     2     7 1   
     5     2    54 1   
     6     2    55 1   
     7     4     5 1   
     8     4    56 1   
     9     4    57 1   
    10     4   134 1   
    11     5     6 1   
    12     5    33 1   
    13     5    58 1   
    14     6    13 1   
    15     6    59 1   
    16     6    60 1   
    17     7     8 1   
    18     7    61 1   
    19     8     9 1   
    20     8    62 1   
    21     8    63 1   
    22     9    10 1   
    23    10    11 1   
    24    10    12 1   
    25    10    13 1   
    26    14    15 2   
    27    14    16 1   
    28    14   134 1   
    29    16    17 1   
    30    16    64 1   
    31    16    65 1   
    32    17    18 1   
    33    17    66 1   
    34    17    67 1   
    35    18    19 1   
    36    18    68 1   
    37    18    69 1   
    38    19    20 1   
    39    19    70 1   
    40    19    71 1   
    41    20    21 1   
    42    20    72 1   
    43    20    73 1   
    44    21    22 1   
    45    21    74 1   
    46    21    75 1   
    47    22    23 1   
    48    22    76 1   
    49    22    77 1   
    50    23    24 1   
    51    23    78 1   
    52    23    79 1   
    53    24    25 1   
    54    24    80 1   
    55    24    81 1   
    56    25    26 1   
    57    25    82 1   
    58    25    83 1   
    59    26    27 1   
    60    26    84 1   
    61    26    85 1   
    62    27    28 1   
    63    27    86 1   
    64    27    87 1   
    65    28    29 1   
    66    28    88 1   
    67    28    89 1   
    68    29    30 1   
    69    29    90 1   
    70    29    91 1   
    71    30    31 1   
    72    30    92 1   
    73    30    93 1   
    74    31    32 1   
    75    31    94 1   
    76    31    95 1   
    77    32    96 1   
    78    32    97 1   
    79    32    98 1   
    80    33    34 1   
    81    34    35 1   
    82    34    43 2   
    83    35    36 1   
    84    35    99 1   
    85    35   100 1   
    86    36    37 1   
    87    36   101 1   
    88    36   102 1   
    89    37    38 1   
    90    37   103 1   
    91    37   104 1   
    92    38    39 1   
    93    38   105 1   
    94    38   106 1   
    95    39    40 1   
    96    39   107 1   
    97    39   108 1   
    98    40    41 1   
    99    40   109 1   
   100    40   110 1   
   101    41    42 1   
   102    41   111 1   
   103    41   112 1   
   104    42    44 1   
   105    42   113 1   
   106    42   114 1   
   107    44    45 1   
   108    44   115 1   
   109    44   116 1   
   110    45    46 1   
   111    45   117 1   
   112    45   118 1   
   113    46    47 1   
   114    46   119 1   
   115    46   120 1   
   116    47    48 1   
   117    47   121 1   
   118    47   122 1   
   119    48    49 1   
   120    48   123 1   
   121    48   124 1   
   122    49    50 1   
   123    49   125 1   
   124    49   126 1   
   125    50    51 1   
   126    50   127 1   
   127    50   128 1   
   128    51    52 1   
   129    51   129 1   
   130    51   130 1   
   131    52   131 1   
   132    52   132 1   
   133    52   133 1   
@<TRIPOS>SUBSTRUCTURE
     1 P5S         1 TEMP              0 ****  ****    0 ROOT
