@<TRIPOS>MOLECULE
P5S
  134   133     1     0     0
SMALL
No Charge or Current Charge


@<TRIPOS>ATOM
      1 C           -4.9860    -5.9150    -2.5210 c          1 P5S       0.900600
      2 N           -5.4880    -5.5370     0.0400 n8         1 P5S      -0.863800
      3 O           -4.6480    -7.0930    -2.5430 o          1 P5S      -0.857300
      4 C1           0.4450    -4.0620    -2.0280 c3         1 P5S       0.154400
      5 C2           1.0640    -4.7450    -0.7790 c3         1 P5S       0.132100
      6 C3           0.0330    -5.3150     0.2470 c3         1 P5S       0.205400
      7 CA          -4.7440    -5.0750    -1.2070 c3         1 P5S      -0.012500
      8 CB          -3.2060    -4.9570    -1.0090 c3         1 P5S       0.231400
      9 OG          -2.9230    -4.0030     0.0280 os         1 P5S      -0.625200
     10 P12         -2.1830    -4.4280     1.3980 p5         1 P5S       1.413800
     11 O13         -2.5010    -3.4510     2.4820 o          1 P5S      -0.831500
     12 O15         -2.4780    -5.8290     1.8260 o          1 P5S      -0.831500
     13 O16         -0.6500    -4.2520     0.9290 os         1 P5S      -0.549200
     14 C17         -0.8190    -2.1060    -2.6400 c          1 P5S       0.669100
     15 O18         -0.7160    -2.3470    -3.8370 o          1 P5S      -0.574000
     16 C20         -1.5450    -0.8800    -2.0870 c3         1 P5S      -0.143400
     17 C21         -3.0820    -1.0370    -2.1620 c3         1 P5S      -0.059400
     18 C22         -3.8440     0.1810    -1.5960 c3         1 P5S      -0.076400
     19 C23         -5.3780     0.0190    -1.6680 c3         1 P5S      -0.075400
     20 C24         -6.1410     1.2360    -1.1010 c3         1 P5S      -0.071400
     21 C25         -7.6760     1.0750    -1.1740 c3         1 P5S      -0.076400
     22 C26         -8.4380     2.2930    -0.6080 c3         1 P5S      -0.072400
     23 C27         -9.9730     2.1320    -0.6790 c3         1 P5S      -0.076400
     24 C28        -10.7350     3.3490    -0.1120 c3         1 P5S      -0.072400
     25 C29        -12.2690     3.1880    -0.1800 c3         1 P5S      -0.076400
     26 C30        -13.0310     4.4050     0.3880 c3         1 P5S      -0.073400
     27 C31        -14.5650     4.2430     0.3230 c3         1 P5S      -0.075400
     28 C32        -15.3260     5.4610     0.8920 c3         1 P5S      -0.073400
     29 C33        -16.8610     5.2990     0.8280 c3         1 P5S      -0.075400
     30 C34        -17.6210     6.5170     1.3960 c3         1 P5S      -0.075400
     31 C35        -19.1550     6.3550     1.3330 c3         1 P5S      -0.075400
     32 C36        -19.9140     7.5700     1.9000 c3         1 P5S      -0.088100
     33 O37          1.9630    -3.8050    -0.1420 os         1 P5S      -0.387900
     34 C38          2.8860    -4.2610     0.7630 c          1 P5S       0.648100
     35 C39          3.6920    -3.1130     1.3740 c3         1 P5S      -0.143400
     36 C40          5.0090    -2.8730     0.5980 c3         1 P5S      -0.067400
     37 C41          5.8510    -1.7160     1.1800 c3         1 P5S      -0.075400
     38 C42          7.1670    -1.4800     0.4070 c3         1 P5S      -0.075400
     39 C43          8.0130    -0.3280     0.9920 c3         1 P5S      -0.074400
     40 C44          9.3310    -0.0940     0.2220 c3         1 P5S      -0.075400
     41 C45         10.1790     1.0550     0.8100 c3         1 P5S      -0.073400
     42 C46         11.4990     1.2860     0.0420 c3         1 P5S      -0.075400
     43 O47          3.0740    -5.4400     1.0380 o          1 P5S      -0.573000
     44 C48         12.3500     2.4300     0.6340 c3         1 P5S      -0.073400
     45 C49         13.6720     2.6590    -0.1320 c3         1 P5S      -0.074400
     46 C50         14.5260     3.7990     0.4630 c3         1 P5S      -0.074400
     47 C51         15.8490     4.0260    -0.3020 c3         1 P5S      -0.074400
     48 C52         16.7050     5.1640     0.2950 c3         1 P5S      -0.074400
     49 C53         18.0280     5.3890    -0.4690 c3         1 P5S      -0.074400
     50 C54         18.8860     6.5260     0.1310 c3         1 P5S      -0.075400
     51 C55         20.2090     6.7520    -0.6330 c3         1 P5S      -0.075400
     52 C56         21.0650     7.8840    -0.0350 c3         1 P5S      -0.088100
     53 OXT         -5.5930    -5.3930    -3.4500 o          1 P5S      -0.857300
     54 HN          -6.4850    -5.6350    -0.1760 hn         1 P5S       0.314300
     55 HNA         -5.1810    -6.4850     0.2780 hn         1 P5S       0.314300
     56 H1           1.2570    -3.8060    -2.7210 h1         1 P5S       0.045700
     57 H1A         -0.2190    -4.7740    -2.5360 h1         1 P5S       0.045700
     58 H2           1.6410    -5.5980    -1.1610 h1         1 P5S       0.039700
     59 H3          -0.6690    -5.9610    -0.2930 h1         1 P5S       0.027200
     60 H3A          0.5520    -5.9500     0.9750 h1         1 P5S       0.027200
     61 HA          -5.1120    -4.0640    -1.4280 h1         1 P5S       0.046700
     62 HB          -2.7950    -5.9480    -0.7760 h1         1 P5S       0.028200
     63 HBA         -2.7500    -4.6230    -1.9510 h1         1 P5S       0.028200
     64 H20         -1.2600    -0.7410    -1.0380 hc         1 P5S       0.100700
     65 H20A        -1.2470    -0.0070    -2.6780 hc         1 P5S       0.100700
     66 H21         -3.3790    -1.1930    -3.2070 hc         1 P5S       0.042200
     67 H21A        -3.3820    -1.9350    -1.6100 hc         1 P5S       0.042200
     68 H22         -3.5470     0.3370    -0.5500 hc         1 P5S       0.045700
     69 H22A        -3.5500     1.0810    -2.1500 hc         1 P5S       0.045700
     70 H23         -5.6750    -0.1380    -2.7120 hc         1 P5S       0.035200
     71 H23A        -5.6720    -0.8810    -1.1120 hc         1 P5S       0.035200
     72 H24         -5.8450     1.3930    -0.0570 hc         1 P5S       0.036200
     73 H24A        -5.8470     2.1360    -1.6560 hc         1 P5S       0.036200
     74 H25         -7.9720     0.9180    -2.2190 hc         1 P5S       0.035700
     75 H25A        -7.9700     0.1760    -0.6190 hc         1 P5S       0.035700
     76 H26         -8.1410     2.4500     0.4360 hc         1 P5S       0.034700
     77 H26A        -8.1450     3.1920    -1.1640 hc         1 P5S       0.034700
     78 H27        -10.2700     1.9750    -1.7240 hc         1 P5S       0.035700
     79 H27A       -10.2670     1.2320    -0.1240 hc         1 P5S       0.035700
     80 H28        -10.4350     3.5070     0.9310 hc         1 P5S       0.035200
     81 H28A       -10.4420     4.2480    -0.6700 hc         1 P5S       0.035200
     82 H29        -12.5690     3.0300    -1.2240 hc         1 P5S       0.036700
     83 H29A       -12.5610     2.2880     0.3770 hc         1 P5S       0.036700
     84 H30        -12.7290     4.5640     1.4310 hc         1 P5S       0.035700
     85 H30A       -12.7400     5.3040    -0.1700 hc         1 P5S       0.035700
     86 H31        -14.8670     4.0840    -0.7200 hc         1 P5S       0.036700
     87 H31A       -14.8560     3.3440     0.8810 hc         1 P5S       0.036700
     88 H32        -15.0240     5.6190     1.9340 hc         1 P5S       0.035700
     89 H32A       -15.0350     6.3590     0.3340 hc         1 P5S       0.035700
     90 H33        -17.1630     5.1400    -0.2150 hc         1 P5S       0.036700
     91 H33A       -17.1510     4.4000     1.3860 hc         1 P5S       0.036700
     92 H34        -17.3180     6.6750     2.4390 hc         1 P5S       0.036200
     93 H34A       -17.3300     7.4150     0.8380 hc         1 P5S       0.036200
     94 H35        -19.4620     6.1970     0.2920 hc         1 P5S       0.036200
     95 H35A       -19.4500     5.4580     1.8930 hc         1 P5S       0.036200
     96 H36        -20.9970     7.4100     1.8340 hc         1 P5S       0.029033
     97 H36A       -19.6550     7.7330     2.9530 hc         1 P5S       0.029033
     98 H36B       -19.6670     8.4790     1.3370 hc         1 P5S       0.029033
     99 H39          3.1010    -2.1910     1.3140 hc         1 P5S       0.073200
    100 H39A         3.9280    -3.3550     2.4160 hc         1 P5S       0.073200
    101 H40          5.6060    -3.7940     0.6080 hc         1 P5S       0.047700
    102 H40A         4.7740    -2.6560    -0.4520 hc         1 P5S       0.047700
    103 H41          5.2550    -0.7950     1.1670 hc         1 P5S       0.037200
    104 H41A         6.0840    -1.9330     2.2300 hc         1 P5S       0.037200
    105 H42          7.7610    -2.4030     0.4170 hc         1 P5S       0.036200
    106 H42A         6.9350    -1.2600    -0.6420 hc         1 P5S       0.036200
    107 H43          7.4200     0.5960     0.9810 hc         1 P5S       0.036700
    108 H43A         8.2430    -0.5470     2.0420 hc         1 P5S       0.036700
    109 H44          9.9210    -1.0180     0.2300 hc         1 P5S       0.036200
    110 H44A         9.1000     0.1290    -0.8270 hc         1 P5S       0.036200
    111 H45          9.5890     1.9800     0.8000 hc         1 P5S       0.036700
    112 H45A        10.4080     0.8320     1.8600 hc         1 P5S       0.036700
    113 H46         12.0860     0.3590     0.0490 hc         1 P5S       0.036200
    114 H46A        11.2700     1.5120    -1.0070 hc         1 P5S       0.036200
    115 H48         11.7640     3.3580     0.6250 hc         1 P5S       0.036700
    116 H48A        12.5770     2.2040     1.6830 hc         1 P5S       0.036700
    117 H49         14.2570     1.7300    -0.1260 hc         1 P5S       0.036700
    118 H49A        13.4450     2.8880    -1.1810 hc         1 P5S       0.036700
    119 H50         13.9420     4.7280     0.4550 hc         1 P5S       0.036700
    120 H50A        14.7520     3.5710     1.5120 hc         1 P5S       0.036700
    121 H51         16.4310     3.0960    -0.2970 hc         1 P5S       0.036700
    122 H51A        15.6230     4.2570    -1.3510 hc         1 P5S       0.036700
    123 H52         16.1230     6.0940     0.2900 hc         1 P5S       0.036700
    124 H52A        16.9300     4.9330     1.3440 hc         1 P5S       0.036700
    125 H53         18.6100     4.4590    -0.4650 hc         1 P5S       0.036700
    126 H53A        17.8040     5.6220    -1.5170 hc         1 P5S       0.036700
    127 H54         18.3050     7.4560     0.1270 hc         1 P5S       0.036700
    128 H54A        19.1110     6.2920     1.1790 hc         1 P5S       0.036700
    129 H55         20.7940     5.8240    -0.6310 hc         1 P5S       0.035700
    130 H55A        19.9880     6.9890    -1.6810 hc         1 P5S       0.035700
    131 H56         21.9910     8.0080    -0.6090 hc         1 P5S       0.029700
    132 H56A        20.5200     8.8360    -0.0550 hc         1 P5S       0.029700
    133 H56B        21.3330     7.6600     1.0050 hc         1 P5S       0.029700
    134 O19         -0.2820    -2.8780    -1.6460 os         1 P5S      -0.381900
@<TRIPOS>BOND
     1     1     3 1   
     2     1     7 1   
     3     1    53 1   
     4     2     7 1   
     5     2    54 1   
     6     2    55 1   
     7     4     5 1   
     8     4    56 1   
     9     4    57 1   
    10     4   134 1   
    11     5     6 1   
    12     5    33 1   
    13     5    58 1   
    14     6    13 1   
    15     6    59 1   
    16     6    60 1   
    17     7     8 1   
    18     7    61 1   
    19     8     9 1   
    20     8    62 1   
    21     8    63 1   
    22     9    10 1   
    23    10    11 1   
    24    10    12 1   
    25    10    13 1   
    26    14    15 2   
    27    14    16 1   
    28    14   134 1   
    29    16    17 1   
    30    16    64 1   
    31    16    65 1   
    32    17    18 1   
    33    17    66 1   
    34    17    67 1   
    35    18    19 1   
    36    18    68 1   
    37    18    69 1   
    38    19    20 1   
    39    19    70 1   
    40    19    71 1   
    41    20    21 1   
    42    20    72 1   
    43    20    73 1   
    44    21    22 1   
    45    21    74 1   
    46    21    75 1   
    47    22    23 1   
    48    22    76 1   
    49    22    77 1   
    50    23    24 1   
    51    23    78 1   
    52    23    79 1   
    53    24    25 1   
    54    24    80 1   
    55    24    81 1   
    56    25    26 1   
    57    25    82 1   
    58    25    83 1   
    59    26    27 1   
    60    26    84 1   
    61    26    85 1   
    62    27    28 1   
    63    27    86 1   
    64    27    87 1   
    65    28    29 1   
    66    28    88 1   
    67    28    89 1   
    68    29    30 1   
    69    29    90 1   
    70    29    91 1   
    71    30    31 1   
    72    30    92 1   
    73    30    93 1   
    74    31    32 1   
    75    31    94 1   
    76    31    95 1   
    77    32    96 1   
    78    32    97 1   
    79    32    98 1   
    80    33    34 1   
    81    34    35 1   
    82    34    43 2   
    83    35    36 1   
    84    35    99 1   
    85    35   100 1   
    86    36    37 1   
    87    36   101 1   
    88    36   102 1   
    89    37    38 1   
    90    37   103 1   
    91    37   104 1   
    92    38    39 1   
    93    38   105 1   
    94    38   106 1   
    95    39    40 1   
    96    39   107 1   
    97    39   108 1   
    98    40    41 1   
    99    40   109 1   
   100    40   110 1   
   101    41    42 1   
   102    41   111 1   
   103    41   112 1   
   104    42    44 1   
   105    42   113 1   
   106    42   114 1   
   107    44    45 1   
   108    44   115 1   
   109    44   116 1   
   110    45    46 1   
   111    45   117 1   
   112    45   118 1   
   113    46    47 1   
   114    46   119 1   
   115    46   120 1   
   116    47    48 1   
   117    47   121 1   
   118    47   122 1   
   119    48    49 1   
   120    48   123 1   
   121    48   124 1   
   122    49    50 1   
   123    49   125 1   
   124    49   126 1   
   125    50    51 1   
   126    50   127 1   
   127    50   128 1   
   128    51    52 1   
   129    51   129 1   
   130    51   130 1   
   131    52   131 1   
   132    52   132 1   
   133    52   133 1   
@<TRIPOS>SUBSTRUCTURE
     1 P5S         1 TEMP              0 ****  ****    0 ROOT
