@<TRIPOS>MOLECULE
P5U
   27    27     1     0     0
SMALL
bcc


@<TRIPOS>ATOM
      1 N            3.9240    -0.4830    -0.8570 n8         1 P5U      -0.873800
      2 CA           2.8570     0.4950    -0.7950 c3         1 P5U       0.006500
      3 C            3.2660     1.9350    -0.3600 c          1 P5U       0.906600
      4 O            4.4640     2.1290    -0.0960 o          1 P5U      -0.822800
      5 CB           1.7620     0.0190     0.1420 c3         1 P5U       0.189400
      6 C03         -1.2860    -0.8440     0.2250 ca         1 P5U      -0.277500
      7 C04         -1.6760    -0.0640     1.3030 ca         1 P5U      -0.029500
      8 C05         -2.7270     0.8240     1.1450 ca         1 P5U      -0.114000
      9 C06         -3.3690     0.9130    -0.0870 ca         1 P5U       0.024000
     10 C07         -4.4550     1.8280    -0.2490 cg         1 P5U       0.240800
     11 C09         -2.9710     0.1220    -1.1650 ca         1 P5U      -0.114000
     12 C10         -1.9220    -0.7640    -1.0080 ca         1 P5U      -0.029500
     13 N08         -5.3320     2.5630    -0.3780 n1         1 P5U      -0.376800
     14 O01         -0.1830    -3.1580    -0.3700 o          1 P5U      -0.629800
     15 O11          1.2380    -1.2280    -0.3830 os         1 P5U      -0.513500
     16 O18          0.4070    -2.0690     1.8100 o          1 P5U      -0.629800
     17 S02          0.0760    -1.9650     0.4040 sy         1 P5U       1.430800
     18 H1           4.5130    -0.2690    -1.6520 hn         1 P5U       0.331300
     19 H2           4.5260    -0.3500    -0.0530 hn         1 P5U       0.331300
     20 HA           2.4170     0.5820    -1.7960 h1         1 P5U       0.054700
     21 HB3          2.1560    -0.1510     1.1470 h1         1 P5U       0.055700
     22 HB2          0.9610     0.7570     0.1900 h1         1 P5U       0.055700
     23 H171        -1.1780    -0.1370     2.2590 ha         1 P5U       0.161500
     24 H181        -3.0440     1.4400     1.9750 ha         1 P5U       0.142000
     25 H041        -3.4780     0.1990    -2.1160 ha         1 P5U       0.142000
     26 H051        -1.6180    -1.3830    -1.8410 ha         1 P5U       0.161500
     27 OXT          2.3390     2.7690    -0.3200 o          1 P5U      -0.822800
@<TRIPOS>BOND
     1     1     2 1   
     2     1    18 1   
     3     1    19 1   
     4     2     3 1   
     5     2     5 1   
     6     2    20 1   
     7     3     4 1   
     8     3    27 1   
     9     5    15 1   
    10     5    21 1   
    11     5    22 1   
    12     6     7 ar  
    13     6    12 ar  
    14     6    17 1   
    15     7     8 ar  
    16     7    23 1   
    17     8     9 ar  
    18     8    24 1   
    19     9    10 1   
    20     9    11 ar  
    21    10    13 3   
    22    11    12 ar  
    23    11    25 1   
    24    12    26 1   
    25    14    17 2   
    26    15    17 1   
    27    16    17 2   
@<TRIPOS>SUBSTRUCTURE
     1 P5U         1 TEMP              0 ****  ****    0 ROOT
