@<TRIPOS>MOLECULE
P5U
   27    27     1     0     0
SMALL
No Charge or Current Charge


@<TRIPOS>ATOM
      1 N            3.9960    -0.3780    -1.1740 n8         1 P5U      -0.984200
      2 CA           2.8360     0.5430    -0.8210 c3         1 P5U       0.006500
      3 C            3.2350     1.9620    -0.2670 c          1 P5U       0.696000
      4 O            3.8800     2.0180     0.7720 o          1 P5U      -0.717500
      5 CB           1.8240    -0.0960     0.1730 c3         1 P5U       0.212600
      6 C03         -1.3030    -0.8910     0.2660 ca         1 P5U      -0.277500
      7 C04         -1.6500     0.0100     1.2960 ca         1 P5U      -0.011500
      8 C05         -2.7050     0.9200     1.1070 ca         1 P5U      -0.096000
      9 C06         -3.4190     0.9400    -0.1060 ca         1 P5U       0.024000
     10 C07         -4.4980     1.8720    -0.2960 cg         1 P5U       0.330000
     11 C09         -3.0710     0.0410    -1.1330 ca         1 P5U      -0.096000
     12 C10         -2.0170    -0.8710    -0.9500 ca         1 P5U      -0.011500
     13 N08         -5.3810     2.6230    -0.4470 n1         1 P5U      -0.466000
     14 O01         -0.2560    -3.3130    -0.2160 o          1 P5U      -0.559000
     15 O11          1.2250    -1.2500    -0.4480 os         1 P5U      -0.536700
     16 O18          0.5050    -2.0390     1.8880 o          1 P5U      -0.559000
     17 S02          0.0560    -2.0610     0.4890 sy         1 P5U       1.289200
     18 H1           4.6050     0.0920    -1.8550 hn         1 P5U       0.386500
     19 H2           4.6000    -0.4800    -0.3490 hn         1 P5U       0.386500
     20 HA           2.2840     0.7290    -1.7530 h1         1 P5U       0.054700
     21 HB3          2.3480    -0.3670     1.1000 h1         1 P5U       0.055700
     22 HB2          1.0570     0.6500     0.4230 h1         1 P5U       0.055700
     23 H171        -1.1100     0.0110     2.2420 ha         1 P5U       0.143500
     24 H181        -2.9660     1.6100     1.9070 ha         1 P5U       0.124000
     25 H041        -3.6150     0.0480    -2.0750 ha         1 P5U       0.124000
     26 H051        -1.7580    -1.5570    -1.7560 ha         1 P5U       0.143500
     27 OXT          2.9640     2.9450    -0.9420 o          1 P5U      -0.717500
@<TRIPOS>BOND
     1     1     2 1   
     2     1    18 1   
     3     1    19 1   
     4     2     3 1   
     5     2     5 1   
     6     2    20 1   
     7     3     4 1   
     8     3    27 1   
     9     5    15 1   
    10     5    21 1   
    11     5    22 1   
    12     6     7 ar  
    13     6    12 ar  
    14     6    17 1   
    15     7     8 ar  
    16     7    23 1   
    17     8     9 ar  
    18     8    24 1   
    19     9    10 1   
    20     9    11 ar  
    21    10    13 3   
    22    11    12 ar  
    23    11    25 1   
    24    12    26 1   
    25    14    17 2   
    26    15    17 1   
    27    16    17 2   
@<TRIPOS>SUBSTRUCTURE
     1 P5U         1 TEMP              0 ****  ****    0 ROOT
