@<TRIPOS>MOLECULE
P5V
   49    54     1     0     0
SMALL
abcg2


@<TRIPOS>ATOM
      1 C2          -3.5680    -1.5140     0.1640 c          1 P5V       0.571000
      2 C4          -1.4190    -2.0830     0.6570 ca         1 P5V       0.006000
      3 C5          -0.3120    -2.6830     1.2250 ca         1 P5V      -0.151000
      4 C6           0.9390    -2.1670     0.9020 ca         1 P5V      -0.053000
      5 C7           1.0930    -1.0870     0.0320 cp         1 P5V      -0.081000
      6 C8          -0.0510    -0.5150    -0.5440 ca         1 P5V      -0.030000
      7 C11         -2.8790    -0.9200    -2.2010 c5         1 P5V      -0.067400
      8 C12         -3.9250     0.1000    -2.6270 c5         1 P5V      -0.098400
      9 C17         -3.3130     2.8090     0.6980 cx         1 P5V      -0.237700
     10 C18         -4.1830     3.2670     1.8440 cx         1 P5V      -0.097900
     11 C19         -2.7360     3.5910     1.8490 cx         1 P5V      -0.097900
     12 C21          3.4110    -0.4990     0.6970 ca         1 P5V      -0.073000
     13 C24          6.7910     0.5510     1.0560 ca         1 P5V       0.296900
     14 C27          4.9750     0.4870    -0.8980 ca         1 P5V       0.220000
     15 O1          -4.7770    -1.4830     0.1960 o          1 P5V      -0.516000
     16 N3          -2.7610    -2.3820     0.8310 ns         1 P5V      -0.135000
     17 C9          -1.2890    -1.0140    -0.2240 ca         1 P5V      -0.144300
     18 C10         -2.6560    -0.6210    -0.7040 c5         1 P5V       0.087700
     19 C13         -3.5330     1.3390    -1.8360 c5         1 P5V       0.113000
     20 N14         -3.0010     0.7810    -0.5940 n          1 P5V      -0.395800
     21 O16         -2.7310     0.7010     1.6240 o          1 P5V      -0.602100
     22 C20          2.4330    -0.5510    -0.2700 cp         1 P5V      -0.011000
     23 C22          4.6890     0.0140     0.4050 ca         1 P5V       0.225000
     24 N23          5.6280     0.0600     1.3800 nb         1 P5V      -0.623000
     25 C25          7.0770     1.0190    -0.2490 ca         1 P5V       0.295900
     26 N26          6.1930     0.9890    -1.2060 nb         1 P5V      -0.623000
     27 C28          3.9660     0.4290    -1.8830 ca         1 P5V      -0.075000
     28 C29          2.7350    -0.0750    -1.5730 ca         1 P5V      -0.096000
     29 H1          -0.4030    -3.5220     1.9020 ha         1 P5V       0.125000
     30 H2           1.8150    -2.6380     1.3290 ha         1 P5V       0.119000
     31 H3           0.0340     0.3350    -1.2120 ha         1 P5V       0.121000
     32 H4          -3.1700    -1.9550    -2.3800 hc         1 P5V       0.061700
     33 H5          -1.9430    -0.7480    -2.7370 hc         1 P5V       0.061700
     34 H6          -3.9190     0.2790    -3.7010 hc         1 P5V       0.065200
     35 H7          -4.9260    -0.2270    -2.3420 hc         1 P5V       0.065200
     36 H8          -3.4210     3.3480    -0.2330 hc         1 P5V       0.086700
     37 H9          -4.8950     4.0540     1.6320 hc         1 P5V       0.081950
     38 H10         -4.5380     2.5070     2.5270 hc         1 P5V       0.081950
     39 H11         -2.0950     3.0610     2.5410 hc         1 P5V       0.081950
     40 H12         -2.4330     4.6070     1.6340 hc         1 P5V       0.081950
     41 H13          3.2160    -0.8270     1.7110 ha         1 P5V       0.136000
     42 H14          7.5550     0.5960     1.8240 h4         1 P5V       0.029100
     43 H15         -3.1110    -3.0840     1.4660 hn         1 P5V       0.174000
     44 H16         -2.7700     1.9210    -2.3590 h1         1 P5V       0.049200
     45 H17         -4.3840     1.9900    -1.6430 h1         1 P5V       0.049200
     46 H18          8.0590     1.4190    -0.4760 h4         1 P5V       0.029100
     47 H19          4.1910     0.7810    -2.8810 ha         1 P5V       0.133000
     48 H20          1.9810    -0.1320    -2.3470 ha         1 P5V       0.118000
     49 C15         -2.9960     1.3610     0.6250 c          1 P5V       0.641100
@<TRIPOS>BOND
     1     1    15 2   
     2     1    16 1   
     3     1    18 1   
     4     2     3 ar  
     5     2    16 1   
     6     2    17 ar  
     7     3     4 ar  
     8     3    29 1   
     9     4     5 ar  
    10     4    30 1   
    11     5     6 ar  
    12     5    22 1   
    13     6    17 ar  
    14     6    31 1   
    15     7     8 1   
    16     7    18 1   
    17     7    32 1   
    18     7    33 1   
    19     8    19 1   
    20     8    34 1   
    21     8    35 1   
    22     9    10 1   
    23     9    11 1   
    24     9    36 1   
    25     9    49 1   
    26    10    11 1   
    27    10    37 1   
    28    10    38 1   
    29    11    39 1   
    30    11    40 1   
    31    12    22 ar  
    32    12    23 ar  
    33    12    41 1   
    34    13    24 ar  
    35    13    25 ar  
    36    13    42 1   
    37    14    23 ar  
    38    14    26 ar  
    39    14    27 ar  
    40    16    43 1   
    41    17    18 1   
    42    18    20 1   
    43    19    20 1   
    44    19    44 1   
    45    19    45 1   
    46    20    49 1   
    47    21    49 2   
    48    22    28 ar  
    49    23    24 ar  
    50    25    26 ar  
    51    25    46 1   
    52    27    28 ar  
    53    27    47 1   
    54    28    48 1   
@<TRIPOS>SUBSTRUCTURE
     1 P5V         1 TEMP              0 ****  ****    0 ROOT
