@<TRIPOS>MOLECULE
P5V
   49    54     1     0     0
SMALL
No Charge or Current Charge


@<TRIPOS>ATOM
      1 C2          -3.6560    -1.7010     0.2920 c          1 P5V       0.571000
      2 C4          -1.3850    -2.2220     0.6910 ca         1 P5V       0.006000
      3 C5          -0.2440    -2.8370     1.2100 ca         1 P5V      -0.151000
      4 C6           1.0100    -2.2910     0.8650 ca         1 P5V      -0.053000
      5 C7           1.1160    -1.1460     0.0170 cp         1 P5V      -0.081000
      6 C8          -0.0820    -0.5600    -0.4830 ca         1 P5V      -0.030000
      7 C11         -2.8810    -0.8940    -2.0670 c5         1 P5V      -0.067400
      8 C12         -3.8930     0.2240    -2.4250 c5         1 P5V      -0.098400
      9 C17         -2.9920     2.9060     0.8810 cx         1 P5V      -0.237700
     10 C18         -4.4000     3.4580     0.9910 cx         1 P5V      -0.097900
     11 C19         -3.4380     3.6210     2.1430 cx         1 P5V      -0.097900
     12 C21          3.5170    -0.5620     0.5960 ca         1 P5V      -0.073000
     13 C24          6.9590     0.4900     0.8580 ca         1 P5V       0.296900
     14 C27          5.0020     0.5250    -1.0230 ca         1 P5V       0.220000
     15 O1          -4.8760    -1.7590     0.4080 o          1 P5V      -0.516000
     16 N3          -2.7290    -2.5360     0.8850 ns         1 P5V      -0.135000
     17 C9          -1.3190    -1.1200    -0.1330 ca         1 P5V      -0.144300
     18 C10         -2.7360    -0.7080    -0.5250 c5         1 P5V       0.087700
     19 C13         -3.3720     1.4210    -1.5870 c5         1 P5V       0.113000
     20 N14         -2.9620     0.7480    -0.3350 n          1 P5V      -0.395800
     21 O16         -2.5200     0.7980     1.9330 o          1 P5V      -0.602100
     22 C20          2.4520    -0.5730    -0.3380 cp         1 P5V      -0.011000
     23 C22          4.7800    -0.0270     0.2840 ca         1 P5V       0.225000
     24 N23          5.7630    -0.0430     1.2260 nb         1 P5V      -0.623000
     25 C25          7.1770     1.0330    -0.4310 ca         1 P5V       0.295900
     26 N26          6.2030     1.0550    -1.3800 nb         1 P5V      -0.623000
     27 C28          3.9470     0.5150    -1.9520 ca         1 P5V      -0.075000
     28 C29          2.6930    -0.0230    -1.6180 ca         1 P5V      -0.096000
     29 H1          -0.3190    -3.7070     1.8590 ha         1 P5V       0.125000
     30 H2           1.9090    -2.7660     1.2500 ha         1 P5V       0.119000
     31 H3          -0.0480     0.3210    -1.1200 ha         1 P5V       0.121000
     32 H4          -3.2320    -1.8940    -2.3470 hc         1 P5V       0.061700
     33 H5          -1.9330    -0.7280    -2.5930 hc         1 P5V       0.061700
     34 H6          -3.9200     0.4450    -3.4980 hc         1 P5V       0.065200
     35 H7          -4.9110    -0.0520    -2.1240 hc         1 P5V       0.065200
     36 H8          -2.2960     3.4450     0.2430 hc         1 P5V       0.086700
     37 H9          -4.6470     4.3410     0.4070 hc         1 P5V       0.081950
     38 H10         -5.2190     2.7510     1.1120 hc         1 P5V       0.081950
     39 H11         -3.6210     3.0310     3.0390 hc         1 P5V       0.081950
     40 H12         -3.0390     4.6150     2.3310 hc         1 P5V       0.081950
     41 H13          3.3580    -0.9630     1.5930 ha         1 P5V       0.136000
     42 H14          7.7530     0.4820     1.6040 h4         1 P5V       0.029100
     43 H15         -3.0120    -3.2850     1.5030 hn         1 P5V       0.174000
     44 H16         -2.5110     1.9070    -2.0640 h1         1 P5V       0.049200
     45 H17         -4.1590     2.1710    -1.4340 h1         1 P5V       0.049200
     46 H18          8.1430     1.4540    -0.7050 h4         1 P5V       0.029100
     47 H19          4.1050     0.9280    -2.9450 ha         1 P5V       0.133000
     48 H20          1.9070    -0.0250    -2.3690 ha         1 P5V       0.118000
     49 C15         -2.7980     1.4020     0.9040 c          1 P5V       0.641100
@<TRIPOS>BOND
     1     1    15 2   
     2     1    16 1   
     3     1    18 1   
     4     2     3 ar  
     5     2    16 1   
     6     2    17 ar  
     7     3     4 ar  
     8     3    29 1   
     9     4     5 ar  
    10     4    30 1   
    11     5     6 ar  
    12     5    22 1   
    13     6    17 ar  
    14     6    31 1   
    15     7     8 1   
    16     7    18 1   
    17     7    32 1   
    18     7    33 1   
    19     8    19 1   
    20     8    34 1   
    21     8    35 1   
    22     9    10 1   
    23     9    11 1   
    24     9    36 1   
    25     9    49 1   
    26    10    11 1   
    27    10    37 1   
    28    10    38 1   
    29    11    39 1   
    30    11    40 1   
    31    12    22 ar  
    32    12    23 ar  
    33    12    41 1   
    34    13    24 ar  
    35    13    25 ar  
    36    13    42 1   
    37    14    23 ar  
    38    14    26 ar  
    39    14    27 ar  
    40    16    43 1   
    41    17    18 1   
    42    18    20 1   
    43    19    20 1   
    44    19    44 1   
    45    19    45 1   
    46    20    49 1   
    47    21    49 2   
    48    22    28 ar  
    49    23    24 ar  
    50    25    26 ar  
    51    25    46 1   
    52    27    28 ar  
    53    27    47 1   
    54    28    48 1   
@<TRIPOS>SUBSTRUCTURE
     1 P5V         1 TEMP              0 ****  ****    0 ROOT
