@<TRIPOS>MOLECULE
P5W
   32    34     1     0     0
SMALL
bcc


@<TRIPOS>ATOM
      1 C4        -120.3130  -180.2450   314.3720 ca         1 P5W       0.112600
      2 C5        -120.3290  -177.7780   314.1130 cc         1 P5W       0.756300
      3 C6        -120.3220  -175.4500   313.4210 cc         1 P5W      -0.230400
      4 C7        -120.1890  -176.3630   312.4230 cd         1 P5W       0.463800
      5 C8        -120.0440  -176.0730   310.9890 ca         1 P5W      -0.115500
      6 C9        -120.0610  -174.7640   310.5020 ca         1 P5W      -0.102000
      7 C10       -119.9270  -174.5100   309.1470 ca         1 P5W      -0.140500
      8 C11       -119.7720  -175.5580   308.2480 ca         1 P5W      -0.129000
      9 C12       -119.7530  -176.8630   308.7210 ca         1 P5W      -0.140500
     10 C13       -119.8880  -177.1190   310.0770 ca         1 P5W      -0.102000
     11 C14       -120.3240  -181.2540   315.3410 ca         1 P5W      -0.189500
     12 C15       -120.2750  -182.5860   314.9730 ca         1 P5W      -0.085500
     13 N         -120.3700  -178.9290   314.8280 nu         1 P5W      -0.722300
     14 O         -120.1000  -184.6710   312.0050 o          1 P5W      -0.825300
     15 C1        -120.2130  -182.9690   313.6340 ca         1 P5W      -0.143600
     16 C2        -120.2050  -181.9560   312.6830 ca         1 P5W      -0.085500
     17 C3        -120.2530  -180.6130   313.0260 ca         1 P5W      -0.189500
     18 O1        -120.1560  -185.2720   314.1520 o          1 P5W      -0.825300
     19 N1        -120.1940  -177.6730   312.8320 nd         1 P5W      -0.731000
     20 S         -120.4670  -176.2450   314.9430 ss         1 P5W      -0.308300
     21 H1        -120.3440  -174.3740   313.3660 h4         1 P5W       0.168000
     22 H2        -120.1820  -173.9280   311.1790 ha         1 P5W       0.143500
     23 H3        -119.9440  -173.4880   308.7910 ha         1 P5W       0.126000
     24 H4        -119.6680  -175.3590   307.1890 ha         1 P5W       0.122000
     25 H5        -119.6330  -177.6890   308.0310 ha         1 P5W       0.126000
     26 H6        -119.8720  -178.1400   310.4330 ha         1 P5W       0.143500
     27 H7        -120.3710  -180.9900   316.3920 ha         1 P5W       0.121500
     28 H8        -120.2840  -183.3430   315.7460 ha         1 P5W       0.147000
     29 H9        -120.4400  -178.8280   315.8290 hn         1 P5W       0.438800
     30 H10       -120.1570  -182.2190   311.6340 ha         1 P5W       0.147000
     31 H11       -120.2410  -179.8620   312.2540 ha         1 P5W       0.121500
     32 C         -120.1510  -184.4360   313.2280 c          1 P5W       0.926200
@<TRIPOS>BOND
     1     1    11 ar  
     2     1    13 1   
     3     1    17 ar  
     4     2    13 1   
     5     2    19 2   
     6     2    20 1   
     7     3     4 2   
     8     3    20 1   
     9     3    21 1   
    10     4     5 1   
    11     4    19 1   
    12     5     6 ar  
    13     5    10 ar  
    14     6     7 ar  
    15     6    22 1   
    16     7     8 ar  
    17     7    23 1   
    18     8     9 ar  
    19     8    24 1   
    20     9    10 ar  
    21     9    25 1   
    22    10    26 1   
    23    11    12 ar  
    24    11    27 1   
    25    12    15 ar  
    26    12    28 1   
    27    13    29 1   
    28    14    32 1   
    29    15    16 ar  
    30    15    32 1   
    31    16    17 ar  
    32    16    30 1   
    33    17    31 1   
    34    18    32 1   
@<TRIPOS>SUBSTRUCTURE
     1 P5W         1 TEMP              0 ****  ****    0 ROOT
