@<TRIPOS>MOLECULE
P5W
   32    34     1     0     0
SMALL
No Charge or Current Charge


@<TRIPOS>ATOM
      1 C4         120.5230  -180.2780   314.3710 ca         1 P5W       0.251000
      2 C5        -120.6270  -177.7620   314.1050 cc         1 P5W       0.756300
      3 C6         120.5490  -175.4690   313.3840 cc         1 P5W      -0.292000
      4 C7        -120.2980  -176.4000   312.3960 cd         1 P5W       0.398500
      5 C8         120.0010  -176.0770   310.9780 ca         1 P5W      -0.115500
      6 C9        -119.9550  -174.7350   310.5310 ca         1 P5W      -0.084000
      7 C10        119.6740  -174.4340   309.1860 ca         1 P5W      -0.122500
      8 C11       -119.4340  -175.4660   308.2660 ca         1 P5W      -0.111000
      9 C12        119.4770  -176.8010   308.6930 ca         1 P5W      -0.122500
     10 C13       -119.7580  -177.1060   310.0360 ca         1 P5W      -0.084000
     11 C14        119.8960  -181.1710   315.2530 ca         1 P5W      -0.171500
     12 C15       -119.7220  -182.5210   314.9010 ca         1 P5W      -0.067500
     13 N          120.6950  -178.9530   314.7650 nu         1 P5W      -0.915900
     14 O         -120.4180  -184.8440   312.1870 o          1 P5W      -0.720000
     15 C1         120.1840  -183.0070   313.6560 ca         1 P5W      -0.143600
     16 C2        -120.8280  -182.1030   312.7790 ca         1 P5W      -0.067500
     17 C3         120.9990  -180.7540   313.1380 ca         1 P5W      -0.171500
     18 O1        -119.4360  -185.2120   314.0610 o          1 P5W      -0.720000
     19 N1         120.3380  -177.7200   312.8260 nd         1 P5W      -0.731000
     20 S         -120.8460  -176.2390   314.9160 ss         1 P5W      -0.163400
     21 H1         120.5770  -174.3910   313.3180 h4         1 P5W       0.150000
     22 H2        -120.1350  -173.9120   311.2170 ha         1 P5W       0.125500
     23 H3         119.6410  -173.3970   308.8580 ha         1 P5W       0.108000
     24 H4        -119.2170  -175.2310   307.2270 ha         1 P5W       0.104000
     25 H5         119.2920  -177.6040   307.9820 ha         1 P5W       0.108000
     26 H6        -119.7840  -178.1500   310.3390 ha         1 P5W       0.125500
     27 H7         119.5340  -180.8210   316.2160 ha         1 P5W       0.103500
     28 H8        -119.2260  -183.1890   315.6030 ha         1 P5W       0.129000
     29 H9         120.6660  -178.8020   315.7680 hn         1 P5W       0.494000
     30 H10       -121.2040  -182.4440   311.8170 ha         1 P5W       0.129000
     31 H11        121.5120  -180.0860   312.4540 ha         1 P5W       0.103500
     32 C         -119.9980  -184.4660   313.2720 c          1 P5W       0.715600
@<TRIPOS>BOND
     1     1    11 ar  
     2     1    13 1   
     3     1    17 ar  
     4     2    13 1   
     5     2    19 2   
     6     2    20 1   
     7     3     4 2   
     8     3    20 1   
     9     3    21 1   
    10     4     5 1   
    11     4    19 1   
    12     5     6 ar  
    13     5    10 ar  
    14     6     7 ar  
    15     6    22 1   
    16     7     8 ar  
    17     7    23 1   
    18     8     9 ar  
    19     8    24 1   
    20     9    10 ar  
    21     9    25 1   
    22    10    26 1   
    23    11    12 ar  
    24    11    27 1   
    25    12    15 ar  
    26    12    28 1   
    27    13    29 1   
    28    14    32 1   
    29    15    16 ar  
    30    15    32 1   
    31    16    17 ar  
    32    16    30 1   
    33    17    31 1   
    34    18    32 1   
@<TRIPOS>SUBSTRUCTURE
     1 P5W         1 TEMP              0 ****  ****    0 ROOT
