@<TRIPOS>MOLECULE
P5X
   52    55     1     0     0
SMALL
No Charge or Current Charge


@<TRIPOS>ATOM
      1 C2         -19.5000   -25.7210    56.1700 c3         1 P5X       0.215100
      2 C4         -19.8960   -26.1590    53.7110 c3         1 P5X       0.215100
      3 N1         -19.0100   -26.2920    54.8920 nh         1 P5X      -0.829400
      4 C10         -9.3680   -24.9850    55.8010 ca         1 P5X       0.362900
      5 C18        -14.4560   -32.7830    52.4030 cc         1 P5X       0.090000
      6 C12        -15.7380   -32.8430    52.8760 cd         1 P5X      -0.237000
      7 S01        -15.9700   -31.7410    54.2460 ss         1 P5X       0.225000
      8 C19        -14.2740   -31.2310    54.1340 cd         1 P5X      -0.230300
      9 C09        -13.6310   -31.8760    53.1090 cc         1 P5X      -0.103000
     10 C23        -13.7160   -30.1930    55.0710 c3         1 P5X       0.174300
     11 C16        -15.2420   -28.2710    54.6140 ca         1 P5X      -0.128000
     12 C06        -15.9340   -28.2100    55.8410 ca         1 P5X      -0.064000
     13 C08        -17.1810   -27.5690    55.9270 ca         1 P5X      -0.186000
     14 C17        -17.7500   -26.9390    54.8040 ca         1 P5X       0.342000
     15 C07        -17.0290   -26.9480    53.5960 ca         1 P5X      -0.186000
     16 C05        -15.7800   -27.5860    53.5060 ca         1 P5X      -0.064000
     17 C20        -12.7990   -28.1860    53.9210 c          1 P5X       0.606100
     18 O01        -11.8390   -28.8380    53.5240 o          1 P5X      -0.592100
     19 C22        -12.7740   -26.6490    53.7810 c3         1 P5X      -0.102100
     20 C15        -11.6020   -26.0480    54.5660 ca         1 P5X      -0.100300
     21 C11        -10.4150   -25.7220    53.8760 ca         1 P5X       0.337900
     22 N01         -9.3180   -25.1980    54.4680 nb         1 P5X      -0.660000
     23 C14        -11.6450   -25.8260    55.9660 ca         1 P5X       0.004000
     24 C04        -12.7770   -26.1270    56.7570 ca         1 P5X      -0.105000
     25 C02        -12.7590   -25.8870    58.1420 ca         1 P5X      -0.092000
     26 C13        -10.4990   -25.2820    56.5870 ca         1 P5X      -0.098000
     27 C03        -10.4850   -25.0420    57.9740 ca         1 P5X      -0.079000
     28 C01        -11.6150   -25.3460    58.7500 ca         1 P5X      -0.114000
     29 H1         -18.6700   -25.2860    56.7420 h1         1 P5X       0.038200
     30 H2         -20.2300   -24.9210    55.9860 h1         1 P5X       0.038200
     31 H3         -19.9820   -26.4970    56.7790 h1         1 P5X       0.038200
     32 H4         -20.9460   -26.0660    54.0180 h1         1 P5X       0.038200
     33 H5         -19.6250   -25.2720    53.1240 h1         1 P5X       0.038200
     34 H6         -19.8180   -27.0460    53.0680 h1         1 P5X       0.038200
     35 H7          -8.4710   -24.5640    56.2540 h4         1 P5X       0.018100
     36 H8         -16.5580   -33.4500    52.5160 h4         1 P5X       0.163000
     37 H9         -12.5900   -31.7160    52.8440 ha         1 P5X       0.158000
     38 H10        -14.2060   -30.2960    56.0470 h1         1 P5X       0.075700
     39 H11        -12.6500   -30.3940    55.2420 h1         1 P5X       0.075700
     40 H12        -15.5100   -28.6550    56.7380 ha         1 P5X       0.119500
     41 H13        -17.7020   -27.5670    56.8790 ha         1 P5X       0.117500
     42 H14        -17.4230   -26.4440    52.7190 ha         1 P5X       0.117500
     43 H15        -15.2430   -27.5680    52.5600 ha         1 P5X       0.119500
     44 H16        -13.7100   -26.1900    54.1060 hc         1 P5X       0.073700
     45 H17        -12.6590   -26.4210    52.7150 hc         1 P5X       0.073700
     46 H18        -10.3380   -25.8860    52.8010 h4         1 P5X       0.018100
     47 H19        -13.6780   -26.5430    56.3200 ha         1 P5X       0.118000
     48 H20        -13.6340   -26.1210    58.7440 ha         1 P5X       0.112000
     49 H21         -9.6010   -24.6230    58.4520 ha         1 P5X       0.116000
     50 H22        -11.6050   -25.1610    59.8230 ha         1 P5X       0.115000
     51 N02        -13.9020   -28.8120    54.5670 n          1 P5X      -0.237400
     52 Cl01       -13.8580   -33.7120    51.0660 cl         1 P5X      -0.183000
@<TRIPOS>BOND
     1     1     3 1   
     2     1    29 1   
     3     1    30 1   
     4     1    31 1   
     5     2     3 1   
     6     2    32 1   
     7     2    33 1   
     8     2    34 1   
     9     3    14 1   
    10     4    22 ar  
    11     4    26 ar  
    12     4    35 1   
    13     5     6 2   
    14     5     9 1   
    15     5    52 1   
    16     6     7 1   
    17     6    36 1   
    18     7     8 1   
    19     8     9 2   
    20     8    10 1   
    21     9    37 1   
    22    10    38 1   
    23    10    39 1   
    24    10    51 1   
    25    11    12 ar  
    26    11    16 ar  
    27    11    51 1   
    28    12    13 ar  
    29    12    40 1   
    30    13    14 ar  
    31    13    41 1   
    32    14    15 ar  
    33    15    16 ar  
    34    15    42 1   
    35    16    43 1   
    36    17    18 2   
    37    17    19 1   
    38    17    51 1   
    39    19    20 1   
    40    19    44 1   
    41    19    45 1   
    42    20    21 ar  
    43    20    23 ar  
    44    21    22 ar  
    45    21    46 1   
    46    23    24 ar  
    47    23    26 ar  
    48    24    25 ar  
    49    24    47 1   
    50    25    28 ar  
    51    25    48 1   
    52    26    27 ar  
    53    27    28 ar  
    54    27    49 1   
    55    28    50 1   
@<TRIPOS>SUBSTRUCTURE
     1 P5X         1 TEMP              0 ****  ****    0 ROOT
