@<TRIPOS>MOLECULE
P5X
   52    55     1     0     0
SMALL
abcg2


@<TRIPOS>ATOM
      1 C2         -19.8340   -26.2330    55.7600 c3         1 P5X       0.215100
      2 C4         -19.6860   -26.3230    53.2720 c3         1 P5X       0.215100
      3 N1         -19.0330   -26.4290    54.5650 nh         1 P5X      -0.829400
      4 C10         -9.3470   -24.6860    55.4540 ca         1 P5X       0.362900
      5 C18        -14.8710   -32.1660    52.1020 cc         1 P5X       0.090000
      6 C12        -16.1290   -32.3280    52.6050 cd         1 P5X      -0.237000
      7 S01        -16.2360   -31.6280    54.1680 ss         1 P5X       0.225000
      8 C19        -14.5820   -31.1260    54.1440 cd         1 P5X      -0.230300
      9 C09        -13.9780   -31.4830    52.9700 cc         1 P5X      -0.103000
     10 C23        -13.9990   -30.3240    55.2670 c3         1 P5X       0.174300
     11 C16        -15.2540   -28.2390    54.8570 ca         1 P5X      -0.128000
     12 C06        -15.9700   -27.9090    56.0020 ca         1 P5X      -0.064000
     13 C08        -17.2230   -27.3250    55.9150 ca         1 P5X      -0.186000
     14 C17        -17.8060   -27.0390    54.6600 ca         1 P5X       0.342000
     15 C07        -17.0740   -27.4040    53.5080 ca         1 P5X      -0.186000
     16 C05        -15.8270   -27.9950    53.6140 ca         1 P5X      -0.064000
     17 C20        -12.8020   -28.2820    54.6540 c          1 P5X       0.606100
     18 O01        -11.7330   -28.8910    54.6360 o          1 P5X      -0.592100
     19 C22        -12.8590   -26.7930    54.3190 c3         1 P5X      -0.102100
     20 C15        -11.6320   -26.0560    54.7720 ca         1 P5X      -0.100300
     21 C11        -10.7170   -25.5890    53.8620 ca         1 P5X       0.337900
     22 N01         -9.5840   -24.9110    54.1830 nb         1 P5X      -0.660000
     23 C14        -11.3860   -25.8170    56.1540 ca         1 P5X       0.004000
     24 C04        -12.2470   -26.2420    57.1940 ca         1 P5X      -0.105000
     25 C02        -11.9390   -25.9730    58.5050 ca         1 P5X      -0.092000
     26 C13        -10.2030   -25.1070    56.5000 ca         1 P5X      -0.098000
     27 C03         -9.9110   -24.8410    57.8580 ca         1 P5X      -0.079000
     28 C01        -10.7640   -25.2670    58.8430 ca         1 P5X      -0.114000
     29 H1         -19.3020   -25.6260    56.4950 h1         1 P5X       0.038200
     30 H2         -20.7470   -25.7080    55.4900 h1         1 P5X       0.038200
     31 H3         -20.1090   -27.1820    56.2370 h1         1 P5X       0.038200
     32 H4         -20.6280   -25.7960    53.3970 h1         1 P5X       0.038200
     33 H5         -19.0740   -25.7570    52.5670 h1         1 P5X       0.038200
     34 H6         -19.8930   -27.3060    52.8300 h1         1 P5X       0.038200
     35 H7          -8.4380   -24.1450    55.7060 h4         1 P5X       0.018100
     36 H8         -16.9730   -32.8200    52.1500 h4         1 P5X       0.163000
     37 H9         -12.9480   -31.2640    52.7290 ha         1 P5X       0.158000
     38 H10        -14.5750   -30.4700    56.1800 h1         1 P5X       0.075700
     39 H11        -12.9730   -30.6300    55.4510 h1         1 P5X       0.075700
     40 H12        -15.5400   -28.1120    56.9760 ha         1 P5X       0.119500
     41 H13        -17.7460   -27.0850    56.8270 ha         1 P5X       0.117500
     42 H14        -17.4830   -27.2330    52.5240 ha         1 P5X       0.117500
     43 H15        -15.2880   -28.2760    52.7170 ha         1 P5X       0.119500
     44 H16        -13.7560   -26.3410    54.7370 hc         1 P5X       0.073700
     45 H17        -12.9500   -26.7180    53.2320 hc         1 P5X       0.073700
     46 H18        -10.8820   -25.7560    52.8030 h4         1 P5X       0.018100
     47 H19        -13.1550   -26.7800    56.9590 ha         1 P5X       0.118000
     48 H20        -12.6060   -26.3030    59.2910 ha         1 P5X       0.112000
     49 H21         -9.0060   -24.2970    58.1020 ha         1 P5X       0.116000
     50 H22        -10.5420   -25.0650    59.8830 ha         1 P5X       0.115000
     51 N02        -13.9810   -28.8840    54.9620 n          1 P5X      -0.237400
     52 CL01       -14.3870   -32.7520    50.5360 cl         1 P5X      -0.183000
@<TRIPOS>BOND
     1     1     3 1   
     2     1    29 1   
     3     1    30 1   
     4     1    31 1   
     5     2     3 1   
     6     2    32 1   
     7     2    33 1   
     8     2    34 1   
     9     3    14 1   
    10     4    22 ar  
    11     4    26 ar  
    12     4    35 1   
    13     5     6 2   
    14     5     9 1   
    15     5    52 1   
    16     6     7 1   
    17     6    36 1   
    18     7     8 1   
    19     8     9 2   
    20     8    10 1   
    21     9    37 1   
    22    10    38 1   
    23    10    39 1   
    24    10    51 1   
    25    11    12 ar  
    26    11    16 ar  
    27    11    51 1   
    28    12    13 ar  
    29    12    40 1   
    30    13    14 ar  
    31    13    41 1   
    32    14    15 ar  
    33    15    16 ar  
    34    15    42 1   
    35    16    43 1   
    36    17    18 2   
    37    17    19 1   
    38    17    51 1   
    39    19    20 1   
    40    19    44 1   
    41    19    45 1   
    42    20    21 ar  
    43    20    23 ar  
    44    21    22 ar  
    45    21    46 1   
    46    23    24 ar  
    47    23    26 ar  
    48    24    25 ar  
    49    24    47 1   
    50    25    28 ar  
    51    25    48 1   
    52    26    27 ar  
    53    27    28 ar  
    54    27    49 1   
    55    28    50 1   
@<TRIPOS>SUBSTRUCTURE
     1 P5X         1 TEMP              0 ****  ****    0 ROOT
