@<TRIPOS>MOLECULE
P5Y
   58    61     1     0     0
SMALL
abcg2


@<TRIPOS>ATOM
      1 C10        -16.2890     6.2320   -44.1340 cc         1 P5Y       0.384800
      2 N12        -17.4090     6.7120   -42.4080 nd         1 P5Y      -0.046000
      3 C15        -16.7160     8.4010   -45.3600 c3         1 P5Y       0.124900
      4 C17        -18.9520     7.8540   -46.3700 ca         1 P5Y      -0.092000
      5 C20        -17.8010     7.4070   -48.8570 ca         1 P5Y      -0.111000
      6 C21        -17.0070     7.7750   -47.7770 ca         1 P5Y      -0.092000
      7 C22        -13.3470     6.1230   -44.2310 c          1 P5Y       0.612700
      8 C24        -11.4690     5.9710   -42.5300 ca         1 P5Y      -0.156300
      9 C03        -16.4860     0.9180   -42.9760 ca         1 P5Y      -0.143600
     10 C04        -15.9280     1.9460   -42.2180 ca         1 P5Y      -0.071500
     11 C05        -15.0810     2.8690   -42.8020 ca         1 P5Y      -0.092000
     12 C06        -14.7540     2.7730   -44.1520 ca         1 P5Y      -0.103300
     13 C07        -13.7810     3.7320   -44.7860 c3         1 P5Y       0.156300
     14 C09        -15.4580     5.5260   -45.1510 c3         1 P5Y       0.078700
     15 C16        -17.5760     7.9990   -46.5290 ca         1 P5Y      -0.126300
     16 C18        -19.7450     7.4840   -47.4460 ca         1 P5Y      -0.111000
     17 C19        -19.1710     7.2590   -48.6920 ca         1 P5Y      -0.097000
     18 C23        -11.9380     5.7920   -43.8330 ca         1 P5Y      -0.090600
     19 C29        -10.1230     5.7730   -42.2470 ca         1 P5Y      -0.064000
     20 C30         -9.2400     5.4110   -43.2530 ca         1 P5Y      -0.100000
     21 C31         -9.7000     5.2420   -44.5490 ca         1 P5Y      -0.084000
     22 C32        -11.0440     5.4300   -44.8340 ca         1 P5Y      -0.102000
     23 C34        -15.3020     1.7430   -44.9050 ca         1 P5Y      -0.092000
     24 C35        -16.1620     0.8190   -44.3260 ca         1 P5Y      -0.071500
     25 N08        -14.1630     5.1270   -44.6310 n          1 P5Y      -0.392800
     26 N11        -16.6640     5.7630   -42.9700 nd         1 P5Y      -0.383000
     27 N13        -17.5100     7.7270   -43.1720 nc         1 P5Y      -0.209800
     28 N14        -16.8130     7.4540   -44.2640 na         1 P5Y      -0.057700
     29 N36        -18.3450    -0.5750   -43.0530 ns         1 P5Y      -0.392400
     30 O01        -17.2140    -0.3630   -41.1100 o          1 P5Y      -0.569100
     31 O33        -13.7120     7.2880   -44.2250 o          1 P5Y      -0.581100
     32 O37        -19.1240    -1.5890   -42.5950 oh         1 P5Y      -0.414100
     33 H1         -15.6670     8.4840   -45.6430 h1         1 P5Y       0.089700
     34 H2         -17.0210     9.3660   -44.9580 h1         1 P5Y       0.089700
     35 H3         -19.4100     8.0330   -45.4040 ha         1 P5Y       0.120500
     36 H4         -17.3480     7.2340   -49.8240 ha         1 P5Y       0.118000
     37 H5         -15.9380     7.8900   -47.9110 ha         1 P5Y       0.120500
     38 H6         -16.1620     2.0280   -41.1650 ha         1 P5Y       0.128500
     39 H7         -14.6710     3.6680   -42.2010 ha         1 P5Y       0.125500
     40 H8         -13.6800     3.4980   -45.8500 h1         1 P5Y       0.057200
     41 H9         -12.7990     3.5850   -44.3410 h1         1 P5Y       0.057200
     42 H10        -15.3400     6.1430   -46.0440 h1         1 P5Y       0.070700
     43 H11        -15.9900     4.6290   -45.4690 h1         1 P5Y       0.070700
     44 H12        -20.8140     7.3750   -47.3130 ha         1 P5Y       0.118000
     45 H13        -19.7900     6.9710   -49.5310 ha         1 P5Y       0.116000
     46 H14         -9.7470     5.8990   -41.2410 ha         1 P5Y       0.138000
     47 H15         -8.1950     5.2630   -43.0200 ha         1 P5Y       0.126000
     48 H16         -9.0170     4.9650   -45.3410 ha         1 P5Y       0.124000
     49 H17        -11.3980     5.2980   -45.8480 ha         1 P5Y       0.121000
     50 H18        -15.0500     1.6490   -45.9540 ha         1 P5Y       0.125500
     51 H19        -16.5500     0.0160   -44.9380 ha         1 P5Y       0.128500
     52 H20        -18.5120    -0.2980   -44.0090 hn         1 P5Y       0.340500
     53 H21        -19.8890    -1.1790   -42.1690 ho         1 P5Y       0.440000
     54 C25        -12.3800     6.4160   -41.4230 c3         1 P5Y       0.356300
     55 C02        -17.3670    -0.0680   -42.2840 c          1 P5Y       0.619700
     56 F26        -11.9330     6.0300   -40.2230 f          1 P5Y      -0.105000
     57 F27        -12.4960     7.7490   -41.3800 f          1 P5Y      -0.105000
     58 F28        -13.6180     5.9210   -41.5480 f          1 P5Y      -0.105000
@<TRIPOS>BOND
     1     1    14 1   
     2     1    26 2   
     3     1    28 1   
     4     2    26 1   
     5     2    27 2   
     6     3    15 1   
     7     3    28 1   
     8     3    33 1   
     9     3    34 1   
    10     4    15 ar  
    11     4    16 ar  
    12     4    35 1   
    13     5     6 ar  
    14     5    17 ar  
    15     5    36 1   
    16     6    15 ar  
    17     6    37 1   
    18     7    18 1   
    19     7    25 1   
    20     7    31 2   
    21     8    18 ar  
    22     8    19 ar  
    23     8    54 1   
    24     9    10 ar  
    25     9    24 ar  
    26     9    55 1   
    27    10    11 ar  
    28    10    38 1   
    29    11    12 ar  
    30    11    39 1   
    31    12    13 1   
    32    12    23 ar  
    33    13    25 1   
    34    13    40 1   
    35    13    41 1   
    36    14    25 1   
    37    14    42 1   
    38    14    43 1   
    39    16    17 ar  
    40    16    44 1   
    41    17    45 1   
    42    18    22 ar  
    43    19    20 ar  
    44    19    46 1   
    45    20    21 ar  
    46    20    47 1   
    47    21    22 ar  
    48    21    48 1   
    49    22    49 1   
    50    23    24 ar  
    51    23    50 1   
    52    24    51 1   
    53    27    28 1   
    54    29    32 1   
    55    29    52 1   
    56    29    55 1   
    57    30    55 2   
    58    32    53 1   
    59    54    56 1   
    60    54    57 1   
    61    54    58 1   
@<TRIPOS>SUBSTRUCTURE
     1 P5Y         1 TEMP              0 ****  ****    0 ROOT
