@<TRIPOS>MOLECULE
P5Y
   58    61     1     0     0
SMALL
No Charge or Current Charge


@<TRIPOS>ATOM
      1 C10        -17.1930     6.0310   -45.0860 cc         1 P5Y       0.384800
      2 N12        -18.8790     5.9540   -43.7390 nd         1 P5Y      -0.046000
      3 C15        -17.2580     8.5690   -45.4480 c3         1 P5Y       0.124900
      4 C17        -18.6510     8.2670   -47.5690 ca         1 P5Y      -0.092000
      5 C20        -16.5560     9.2510   -49.1610 ca         1 P5Y      -0.111000
      6 C21        -16.3980     9.1660   -47.7660 ca         1 P5Y      -0.092000
      7 C22        -14.1970     5.8750   -44.2840 c          1 P5Y       0.612700
      8 C24        -12.8010     5.0390   -42.2960 ca         1 P5Y      -0.156300
      9 C03        -14.9650     0.9580   -42.2360 ca         1 P5Y      -0.143600
     10 C04        -13.6740     1.3180   -42.6850 ca         1 P5Y      -0.071500
     11 C05        -13.5070     2.1890   -43.7730 ca         1 P5Y      -0.092000
     12 C06        -14.6240     2.7370   -44.4300 ca         1 P5Y      -0.103300
     13 C07        -14.4450     3.7100   -45.5920 c3         1 P5Y       0.156300
     14 C09        -16.0360     5.6640   -45.9960 c3         1 P5Y       0.078700
     15 C16        -17.4430     8.6690   -46.9610 ca         1 P5Y      -0.126300
     16 C18        -18.8070     8.3540   -48.9630 ca         1 P5Y      -0.111000
     17 C19        -17.7590     8.8450   -49.7600 ca         1 P5Y      -0.097000
     18 C23        -12.9140     5.3470   -43.6840 ca         1 P5Y      -0.090600
     19 C29        -11.5550     4.5840   -41.8010 ca         1 P5Y      -0.064000
     20 C30        -10.4500     4.4340   -42.6550 ca         1 P5Y      -0.100000
     21 C31        -10.5660     4.7440   -44.0160 ca         1 P5Y      -0.084000
     22 C32        -11.7890     5.2030   -44.5240 ca         1 P5Y      -0.102000
     23 C34        -15.9110     2.3680   -44.0050 ca         1 P5Y      -0.092000
     24 C35        -16.0850     1.4930   -42.9180 ca         1 P5Y      -0.071500
     25 N08        -14.8430     5.1110   -45.2890 n          1 P5Y      -0.392800
     26 N11        -17.9330     5.1950   -44.3830 nd         1 P5Y      -0.383000
     27 N13        -18.7640     7.2210   -44.0280 nc         1 P5Y      -0.209800
     28 N14        -17.7110     7.2860   -44.8810 na         1 P5Y      -0.057700
     29 N36        -16.4020    -0.3460   -40.6930 ns         1 P5Y      -0.392400
     30 O01        -14.1350    -0.3920   -40.4290 o          1 P5Y      -0.569100
     31 O33        -14.6220     6.9770   -43.9620 o          1 P5Y      -0.581100
     32 O37        -16.6420    -1.4200   -39.7500 oh         1 P5Y      -0.414100
     33 H1         -16.2000     8.7060   -45.1910 h1         1 P5Y       0.089700
     34 H2         -17.8140     9.3840   -44.9680 h1         1 P5Y       0.089700
     35 H3         -19.4720     7.8880   -46.9630 ha         1 P5Y       0.120500
     36 H4         -15.7440     9.6330   -49.7770 ha         1 P5Y       0.118000
     37 H5         -15.4600     9.4830   -47.3150 ha         1 P5Y       0.120500
     38 H6         -12.7900     0.9230   -42.1890 ha         1 P5Y       0.128500
     39 H7         -12.5010     2.4470   -44.0960 ha         1 P5Y       0.125500
     40 H8         -15.0350     3.3380   -46.4380 h1         1 P5Y       0.057200
     41 H9         -13.4010     3.6960   -45.9270 h1         1 P5Y       0.057200
     42 H10        -15.7190     6.5510   -46.5560 h1         1 P5Y       0.070700
     43 H11        -16.4050     4.9410   -46.7340 h1         1 P5Y       0.070700
     44 H12        -19.7410     8.0410   -49.4250 ha         1 P5Y       0.118000
     45 H13        -17.8810     8.9110   -50.8390 ha         1 P5Y       0.116000
     46 H14        -11.4300     4.3420   -40.7480 ha         1 P5Y       0.138000
     47 H15         -9.5010     4.0810   -42.2570 ha         1 P5Y       0.126000
     48 H16         -9.7070     4.6350   -44.6750 ha         1 P5Y       0.124000
     49 H17        -11.8630     5.4590   -45.5790 ha         1 P5Y       0.121000
     50 H18        -16.7850     2.7620   -44.5150 ha         1 P5Y       0.125500
     51 H19        -17.1010     1.2510   -42.6170 ha         1 P5Y       0.128500
     52 H20        -17.1730    -0.1230   -41.3190 hn         1 P5Y       0.340500
     53 H21        -17.2790    -1.0280   -39.1070 ho         1 P5Y       0.440000
     54 C25        -13.9980     5.1760   -41.3330 c3         1 P5Y       0.356300
     55 C02        -15.1070     0.0190   -41.0520 c          1 P5Y       0.619700
     56 F26        -13.8120     4.5090   -40.1710 f          1 P5Y      -0.105000
     57 F27        -14.2250     6.4670   -41.0040 f          1 P5Y      -0.105000
     58 F28        -15.1470     4.6920   -41.8580 f          1 P5Y      -0.105000
@<TRIPOS>BOND
     1     1    14 1   
     2     1    26 2   
     3     1    28 1   
     4     2    26 1   
     5     2    27 2   
     6     3    15 1   
     7     3    28 1   
     8     3    33 1   
     9     3    34 1   
    10     4    15 ar  
    11     4    16 ar  
    12     4    35 1   
    13     5     6 ar  
    14     5    17 ar  
    15     5    36 1   
    16     6    15 ar  
    17     6    37 1   
    18     7    18 1   
    19     7    25 1   
    20     7    31 2   
    21     8    18 ar  
    22     8    19 ar  
    23     8    54 1   
    24     9    10 ar  
    25     9    24 ar  
    26     9    55 1   
    27    10    11 ar  
    28    10    38 1   
    29    11    12 ar  
    30    11    39 1   
    31    12    13 1   
    32    12    23 ar  
    33    13    25 1   
    34    13    40 1   
    35    13    41 1   
    36    14    25 1   
    37    14    42 1   
    38    14    43 1   
    39    16    17 ar  
    40    16    44 1   
    41    17    45 1   
    42    18    22 ar  
    43    19    20 ar  
    44    19    46 1   
    45    20    21 ar  
    46    20    47 1   
    47    21    22 ar  
    48    21    48 1   
    49    22    49 1   
    50    23    24 ar  
    51    23    50 1   
    52    24    51 1   
    53    27    28 1   
    54    29    32 1   
    55    29    52 1   
    56    29    55 1   
    57    30    55 2   
    58    32    53 1   
    59    54    56 1   
    60    54    57 1   
    61    54    58 1   
@<TRIPOS>SUBSTRUCTURE
     1 P5Y         1 TEMP              0 ****  ****    0 ROOT
