@<TRIPOS>MOLECULE
P5Z
   33    35     1     0     0
SMALL
abcg2


@<TRIPOS>ATOM
      1 C1           4.7450    -7.0970   -22.1150 ca         1 P5Z       0.107000
      2 C2           5.8120    -7.9960   -22.3050 ca         1 P5Z      -0.121000
      3 C3           6.5910    -8.3500   -21.2340 ca         1 P5Z      -0.077000
      4 C4           4.4540    -6.5640   -20.8870 ca         1 P5Z      -0.069000
      5 CL5          3.7710    -6.6540   -23.5010 cl         1 P5Z      -0.244000
      6 C6           5.2480    -6.9290   -19.7780 ca         1 P5Z      -0.089000
      7 C7           6.3360    -7.8280   -19.9450 ca         1 P5Z       0.266000
      8 N8           7.1410    -8.2000   -18.9120 nb         1 P5Z      -0.709000
      9 C9           6.9180    -7.7080   -17.7120 ca         1 P5Z       0.408300
     10 C10          5.8490    -6.8020   -17.4330 ca         1 P5Z      -0.137600
     11 C11          5.0320    -6.4420   -18.4650 ca         1 P5Z       0.104100
     12 O12          4.0190    -5.5270   -18.2440 os         1 P5Z      -0.216200
     13 C13          5.6240    -6.2580   -16.0260 c          1 P5Z       0.719600
     14 O14          4.8460    -6.9160   -15.2980 o          1 P5Z      -0.696000
     15 O15          6.2490    -5.2130   -15.7370 o          1 P5Z      -0.696000
     16 C16          7.8280    -8.1360   -16.5990 c3         1 P5Z      -0.147400
     17 C17          2.7220    -5.9660   -18.2000 ca         1 P5Z       0.168100
     18 C18          1.7170    -5.0000   -18.2630 ca         1 P5Z       0.089000
     19 C19          0.3800    -5.3650   -18.2090 ca         1 P5Z      -0.086000
     20 C20          0.0340    -6.7070   -18.0950 ca         1 P5Z      -0.152000
     21 C21          1.0320    -7.6730   -18.0320 ca         1 P5Z      -0.080000
     22 C22          2.3710    -7.3070   -18.0820 ca         1 P5Z      -0.148000
     23 CL23         2.1510    -3.3170   -18.4200 cl         1 P5Z      -0.203000
     24 H24          6.0080    -8.3940   -23.2910 ha         1 P5Z       0.115000
     25 H25          7.4200    -9.0350   -21.3560 ha         1 P5Z       0.122000
     26 H26          3.6340    -5.8710   -20.7690 ha         1 P5Z       0.137000
     27 H30          8.5690    -8.8400   -16.9700 hc         1 P5Z       0.057033
     28 H28          8.3370    -7.2720   -16.1650 hc         1 P5Z       0.057033
     29 H29          7.2560    -8.6060   -15.7960 hc         1 P5Z       0.057033
     30 H31         -0.3810    -4.5980   -18.2590 ha         1 P5Z       0.115000
     31 H32         -1.0090    -6.9890   -18.0550 ha         1 P5Z       0.104000
     32 H33          0.7720    -8.7190   -17.9420 ha         1 P5Z       0.107000
     33 H34          3.1470    -8.0570   -18.0270 ha         1 P5Z       0.141000
@<TRIPOS>BOND
     1     1     2 ar  
     2     1     4 ar  
     3     1     5 1   
     4     2     3 ar  
     5     2    24 1   
     6     3     7 ar  
     7     3    25 1   
     8     4     6 ar  
     9     4    26 1   
    10     6     7 ar  
    11     6    11 ar  
    12     7     8 ar  
    13     8     9 ar  
    14     9    10 ar  
    15     9    16 1   
    16    10    11 ar  
    17    10    13 1   
    18    11    12 1   
    19    12    17 1   
    20    13    14 1   
    21    13    15 1   
    22    16    27 1   
    23    16    28 1   
    24    16    29 1   
    25    17    18 ar  
    26    17    22 ar  
    27    18    19 ar  
    28    18    23 1   
    29    19    20 ar  
    30    19    30 1   
    31    20    21 ar  
    32    20    31 1   
    33    21    22 ar  
    34    21    32 1   
    35    22    33 1   
@<TRIPOS>SUBSTRUCTURE
     1 P5Z         1 TEMP              0 ****  ****    0 ROOT
