@<TRIPOS>MOLECULE
P5Z
   33    35     1     0     0
SMALL
No Charge or Current Charge


@<TRIPOS>ATOM
      1 C1           4.7780    -7.0960   -22.1660 ca         1 P5Z       0.107000
      2 C2           5.8350    -8.0010   -22.3330 ca         1 P5Z      -0.121000
      3 C3           6.6250    -8.3650   -21.2280 ca         1 P5Z      -0.077000
      4 C4           4.5070    -6.5560   -20.9000 ca         1 P5Z      -0.069000
      5 Cl5          3.7910    -6.6360   -23.5470 cl         1 P5Z      -0.244000
      6 C6           5.2960    -6.9250   -19.7870 ca         1 P5Z      -0.089000
      7 C7           6.3710    -7.8350   -19.9480 ca         1 P5Z       0.266000
      8 N8           7.1550    -8.2050   -18.9090 nb         1 P5Z      -0.709000
      9 C9           6.9110    -7.6900   -17.6810 ca         1 P5Z       0.408300
     10 C10          5.8680    -6.7880   -17.4350 ca         1 P5Z      -0.137600
     11 C11          5.0430    -6.4030   -18.5010 ca         1 P5Z       0.104100
     12 O12          4.0060    -5.5260   -18.2790 os         1 P5Z      -0.216200
     13 C13          5.6450    -6.2620   -16.0650 c          1 P5Z       0.719600
     14 O14          4.9190    -6.9020   -15.3190 o          1 P5Z      -0.696000
     15 O15          6.2220    -5.2340   -15.7460 o          1 P5Z      -0.696000
     16 C16          7.8470    -8.1630   -16.5790 c3         1 P5Z      -0.147400
     17 C17          2.6870    -5.9320   -18.2030 ca         1 P5Z       0.168100
     18 C18          1.6660    -4.9600   -18.2590 ca         1 P5Z       0.089000
     19 C19          0.3170    -5.3480   -18.1880 ca         1 P5Z      -0.086000
     20 C20         -0.0200    -6.7070   -18.0590 ca         1 P5Z      -0.152000
     21 C21          0.9920    -7.6790   -17.9990 ca         1 P5Z      -0.080000
     22 C22          2.3430    -7.2960   -18.0690 ca         1 P5Z      -0.148000
     23 Cl23         2.0590    -3.2480   -18.4280 cl         1 P5Z      -0.203000
     24 H24          6.0440    -8.4190   -23.3140 ha         1 P5Z       0.115000
     25 H25          7.4450    -9.0650   -21.3640 ha         1 P5Z       0.122000
     26 H26          3.6870    -5.8510   -20.7970 ha         1 P5Z       0.137000
     27 H30          8.6070    -8.8590   -16.9550 hc         1 P5Z       0.057033
     28 H28          8.3740    -7.3160   -16.1250 hc         1 P5Z       0.057033
     29 H29          7.2900    -8.6790   -15.7890 hc         1 P5Z       0.057033
     30 H31         -0.4670    -4.5960   -18.2340 ha         1 P5Z       0.115000
     31 H32         -1.0640    -7.0050   -18.0050 ha         1 P5Z       0.104000
     32 H33          0.7300    -8.7300   -17.8960 ha         1 P5Z       0.107000
     33 H34          3.1120    -8.0620   -18.0150 ha         1 P5Z       0.141000
@<TRIPOS>BOND
     1     1     2 ar  
     2     1     4 ar  
     3     1     5 1   
     4     2     3 ar  
     5     2    24 1   
     6     3     7 ar  
     7     3    25 1   
     8     4     6 ar  
     9     4    26 1   
    10     6     7 ar  
    11     6    11 ar  
    12     7     8 ar  
    13     8     9 ar  
    14     9    10 ar  
    15     9    16 1   
    16    10    11 ar  
    17    10    13 1   
    18    11    12 1   
    19    12    17 1   
    20    13    14 1   
    21    13    15 1   
    22    16    27 1   
    23    16    28 1   
    24    16    29 1   
    25    17    18 ar  
    26    17    22 ar  
    27    18    19 ar  
    28    18    23 1   
    29    19    20 ar  
    30    19    30 1   
    31    20    21 ar  
    32    20    31 1   
    33    21    22 ar  
    34    21    32 1   
    35    22    33 1   
@<TRIPOS>SUBSTRUCTURE
     1 P5Z         1 TEMP              0 ****  ****    0 ROOT
