@<TRIPOS>MOLECULE
P60
   20    21     1     0     0
SMALL
bcc


@<TRIPOS>ATOM
      1 C01          2.4560    -1.5900     0.9530 ca         1 P60      -0.160000
      2 C02          3.4500    -0.8900     0.2790 ca         1 P60      -0.117000
      3 C03          3.1350     0.2640    -0.4220 ca         1 P60      -0.194000
      4 C04          1.8240     0.6970    -0.4320 ca         1 P60       0.142900
      5 C05          0.8040     0.0260     0.2330 ca         1 P60      -0.100500
      6 C06          1.1480    -1.1350     0.9270 ca         1 P60      -0.040000
      7 C07         -0.5660     0.5270     0.2240 cc         1 P60       0.162900
      8 C08         -1.8000    -0.0080     0.0180 cd         1 P60       0.239500
      9 C09         -2.1880    -1.4090    -0.3830 c          1 P60       0.840100
     10 O10         -1.2470    -2.1840    -0.6370 o          1 P60      -0.807800
     11 O11         -3.4060    -1.6470    -0.4260 o          1 P60      -0.807800
     12 N12         -2.7380     0.9920     0.2010 nd         1 P60      -0.649000
     13 C13         -2.0600     2.0410     0.4910 cc         1 P60       0.429300
     14 O14         -0.7400     1.8420     0.5260 os         1 P60      -0.377800
     15 F15          1.5230     1.8030    -1.1280 f          1 P60      -0.146900
     16 H01          2.7010    -2.4890     1.5020 ha         1 P60       0.125000
     17 H02          4.4730    -1.2410     0.2970 ha         1 P60       0.115000
     18 H03          3.8930     0.8200    -0.9580 ha         1 P60       0.131000
     19 H06          0.3790    -1.6740     1.4600 ha         1 P60       0.162000
     20 H13         -2.4190     3.0370     0.7020 h5         1 P60       0.054100
@<TRIPOS>BOND
     1     1     2 ar  
     2     1     6 ar  
     3     1    16 1   
     4     2     3 ar  
     5     2    17 1   
     6     3     4 ar  
     7     3    18 1   
     8     4     5 ar  
     9     4    15 1   
    10     5     6 ar  
    11     5     7 1   
    12     6    19 1   
    13     7     8 2   
    14     7    14 1   
    15     8     9 1   
    16     8    12 1   
    17     9    10 1   
    18     9    11 1   
    19    12    13 2   
    20    13    14 1   
    21    13    20 1   
@<TRIPOS>SUBSTRUCTURE
     1 P60         1 TEMP              0 ****  ****    0 ROOT
