@<TRIPOS>MOLECULE
P60
   20    21     1     0     0
SMALL
No Charge or Current Charge


@<TRIPOS>ATOM
      1 C01          2.5710    -1.2330     1.4200 ca         1 P60      -0.142000
      2 C02          3.3700    -1.0100     0.2850 ca         1 P60      -0.099000
      3 C03          2.8600    -0.2650    -0.7920 ca         1 P60      -0.176000
      4 C04          1.5530     0.2470    -0.7350 ca         1 P60       0.178000
      5 C05          0.7430     0.0180     0.3950 ca         1 P60      -0.100500
      6 C06          1.2630    -0.7180     1.4780 ca         1 P60      -0.022000
      7 C07         -0.6070     0.5690     0.4710 cc         1 P60       0.118500
      8 C08         -1.7260     0.1680    -0.2300 cd         1 P60       0.239500
      9 C09         -1.7810    -0.9970    -1.2120 c          1 P60       0.629500
     10 O10         -0.7960    -1.6980    -1.4040 o          1 P60      -0.702500
     11 O11         -2.8430    -1.2280    -1.7820 o          1 P60      -0.702500
     12 N12         -2.7600     1.0280     0.1650 nd         1 P60      -0.649000
     13 C13         -2.2080     1.8440     1.0550 cc         1 P60       0.384900
     14 O14         -0.8870     1.6070     1.2950 os         1 P60      -0.289000
     15 F15          1.0850     0.9810    -1.7700 f          1 P60      -0.182000
     16 H01          2.9650    -1.8040     2.2570 ha         1 P60       0.107000
     17 H02          4.3820    -1.4080     0.2440 ha         1 P60       0.097000
     18 H03          3.4750    -0.0820    -1.6680 ha         1 P60       0.113000
     19 H06          0.6530    -0.8900     2.3620 ha         1 P60       0.144000
     20 H13         -2.6910     2.6520     1.5920 h5         1 P60       0.054100
@<TRIPOS>BOND
     1     1     2 ar  
     2     1     6 ar  
     3     1    16 1   
     4     2     3 ar  
     5     2    17 1   
     6     3     4 ar  
     7     3    18 1   
     8     4     5 ar  
     9     4    15 1   
    10     5     6 ar  
    11     5     7 1   
    12     6    19 1   
    13     7     8 2   
    14     7    14 1   
    15     8     9 1   
    16     8    12 1   
    17     9    10 1   
    18     9    11 1   
    19    12    13 2   
    20    13    14 1   
    21    13    20 1   
@<TRIPOS>SUBSTRUCTURE
     1 P60         1 TEMP              0 ****  ****    0 ROOT
