@<TRIPOS>MOLECULE
P62
   44    45     1     0     0
SMALL
No Charge or Current Charge


@<TRIPOS>ATOM
      1 N           24.5390    14.3490    46.5300 nc         1 P62      -0.708100
      2 C           24.8950    12.0380    45.0800 cc         1 P62       0.050400
      3 O           26.5220    14.2040    47.4750 oh         1 P62      -0.585600
      4 C1          25.9220    12.4510    45.9130 cd         1 P62      -0.314800
      5 C10         26.2620    10.1950    47.9040 ca         1 P62      -0.093500
      6 C11         24.8610    10.8040    44.1870 c3         1 P62       0.234000
      7 C12         26.3010    11.6630    42.2790 c3         1 P62       0.161800
      8 C13         27.4490    10.5930    42.2590 c3         1 P62       0.180800
      9 C14         26.2730     8.5410    41.4490 c3         1 P62       0.170600
     10 C15         27.4560     9.9890    39.8380 c3         1 P62       0.170600
     11 C2          25.6530    13.6710    46.6330 cd         1 P62       0.748900
     12 C3          23.5190    13.9560    45.7240 cs         1 P62       0.539800
     13 C4          27.2260    11.6880    46.0770 c3         1 P62       0.042100
     14 C5          27.0630    10.3280    46.7510 ca         1 P62      -0.079300
     15 C6          27.7170     9.1920    46.2300 ca         1 P62      -0.093500
     16 C7          27.5600     7.9380    46.8460 ca         1 P62      -0.101000
     17 C8          26.7550     7.8130    47.9890 ca         1 P62       0.122000
     18 C9          26.1070     8.9400    48.5200 ca         1 P62      -0.101000
     19 N1          23.7440    12.8090    45.0360 ns         1 P62      -0.433600
     20 N2          24.9760    11.1560    42.7430 n7         1 P62      -0.963400
     21 N3          27.3780     9.5040    41.2350 n3         1 P62      -0.740600
     22 S           22.0990    14.8100    45.6030 s          1 P62      -0.555400
     23 Cl          26.5600     6.2440    48.7590 cl         1 P62      -0.201000
     24 H1          26.0130    14.9860    47.7610 ho         1 P62       0.504000
     25 H7          25.7580    11.0620    48.3240 ha         1 P62       0.114000
     26 H8          23.9140    10.2760    44.3730 h1         1 P62       0.077700
     27 H19         25.6520    10.1040    44.4850 h1         1 P62       0.077700
     28 H9          26.6230    12.4960    42.9190 h1         1 P62       0.041200
     29 H10         26.2040    12.0750    41.2660 h1         1 P62       0.041200
     30 H12         27.5220    10.1450    43.2570 h1         1 P62       0.051200
     31 H11         28.3890    11.1430    42.1130 h1         1 P62       0.051200
     32 H13         26.2540     8.1940    42.4900 h1         1 P62       0.028367
     33 H14         25.3000     8.9930    41.2140 h1         1 P62       0.028367
     34 H15         26.3990     7.6630    40.8020 h1         1 P62       0.028367
     35 H16         28.3270    10.6430    39.7010 h1         1 P62       0.028367
     36 H18         27.5530     9.1450    39.1420 h1         1 P62       0.028367
     37 H17         26.5540    10.5530    39.5650 h1         1 P62       0.028367
     38 H3          27.6930    11.5670    45.0940 hc         1 P62       0.059700
     39 H2          27.9550    12.2720    46.6520 hc         1 P62       0.059700
     40 H4          28.3470     9.2770    45.3470 ha         1 P62       0.114000
     41 H5          28.0640     7.0650    46.4390 ha         1 P62       0.130500
     42 H6          25.4870     8.8410    49.4060 ha         1 P62       0.130500
     43 H           22.9660    12.5150    44.4540 hn         1 P62       0.464000
     44 H20         24.2730    11.8770    42.5340 hn         1 P62       0.461000
@<TRIPOS>BOND
     1     1    11 2   
     2     1    12 1   
     3     2     4 2   
     4     2     6 1   
     5     2    19 1   
     6     3    11 1   
     7     3    24 1   
     8     4    11 1   
     9     4    13 1   
    10     5    14 ar  
    11     5    18 ar  
    12     5    25 1   
    13     6    20 1   
    14     6    26 1   
    15     6    27 1   
    16     7     8 1   
    17     7    20 1   
    18     7    28 1   
    19     7    29 1   
    20     8    21 1   
    21     8    30 1   
    22     8    31 1   
    23     9    21 1   
    24     9    32 1   
    25     9    33 1   
    26     9    34 1   
    27    10    21 1   
    28    10    35 1   
    29    10    36 1   
    30    10    37 1   
    31    12    19 1   
    32    12    22 2   
    33    13    14 1   
    34    13    38 1   
    35    13    39 1   
    36    14    15 ar  
    37    15    16 ar  
    38    15    40 1   
    39    16    17 ar  
    40    16    41 1   
    41    17    18 ar  
    42    17    23 1   
    43    18    42 1   
    44    19    43 1   
    45    20    44 1   
@<TRIPOS>SUBSTRUCTURE
     1 P62         1 TEMP              0 ****  ****    0 ROOT
