@<TRIPOS>MOLECULE
P62
   44    45     1     0     0
SMALL
abcg2


@<TRIPOS>ATOM
      1 N           24.4880    13.5070    46.4910 nc         1 P62      -0.708100
      2 C           25.4730    11.5740    44.8060 cc         1 P62       0.050400
      3 O           26.0540    12.9480    48.0130 oh         1 P62      -0.585600
      4 C1          26.0580    11.7200    46.0350 cd         1 P62      -0.314800
      5 C10         27.3610     9.9910    48.9200 ca         1 P62      -0.093500
      6 C11         25.9060    10.5650    43.7540 c3         1 P62       0.234000
      7 C12         25.9670    11.8910    41.6650 c3         1 P62       0.161800
      8 C13         27.3690    11.6470    41.1000 c3         1 P62       0.180800
      9 C14         27.5170     9.2580    40.5530 c3         1 P62       0.170600
     10 C15         26.7300    10.8210    38.9100 c3         1 P62       0.170600
     11 C2          25.5000    12.7460    46.8360 cd         1 P62       0.748900
     12 C3          23.9040    13.3280    45.3010 cs         1 P62       0.539800
     13 C4          27.1740    10.8600    46.5590 c3         1 P62       0.042100
     14 C5          26.7270     9.9570    47.6840 ca         1 P62      -0.079300
     15 C6          25.6730     9.0650    47.5060 ca         1 P62      -0.093500
     16 C7          25.2560     8.2300    48.5310 ca         1 P62      -0.101000
     17 C8          25.9060     8.2890    49.7550 ca         1 P62       0.122000
     18 C9          26.9600     9.1630    49.9600 ca         1 P62      -0.101000
     19 N1          24.4280    12.3620    44.4890 ns         1 P62      -0.433600
     20 N2          25.4370    10.7790    42.4250 n7         1 P62      -0.963400
     21 N3          27.5370    10.6260    40.0890 n3         1 P62      -0.740600
     22 S           22.5900    14.2240    44.7730 s          1 P62      -0.555400
     23 CL          25.3910     7.2520    51.0470 cl         1 P62      -0.201000
     24 H1          25.5910    13.6660    48.4710 ho         1 P62       0.504000
     25 H7          28.1820    10.6790    49.0840 ha         1 P62       0.114000
     26 H8          25.5890     9.5760    44.0980 h1         1 P62       0.077700
     27 H19         26.9980    10.5400    43.7550 h1         1 P62       0.077700
     28 H9          26.0140    12.8230    42.2490 h1         1 P62       0.041200
     29 H10         25.2700    12.0940    40.8500 h1         1 P62       0.041200
     30 H12         28.0610    11.4250    41.9190 h1         1 P62       0.051200
     31 H11         27.7060    12.6010    40.6780 h1         1 P62       0.051200
     32 H13         28.1080     9.1650    41.4650 h1         1 P62       0.028367
     33 H14         26.5150     8.8650    40.7650 h1         1 P62       0.028367
     34 H15         27.9710     8.6100    39.7990 h1         1 P62       0.028367
     35 H16         26.8060    11.8550    38.5690 h1         1 P62       0.028367
     36 H18         27.0910    10.1800    38.1030 h1         1 P62       0.028367
     37 H17         25.6630    10.5930    39.0510 h1         1 P62       0.028367
     38 H3          27.5840    10.2510    45.7520 hc         1 P62       0.059700
     39 H2          27.9990    11.4860    46.9050 hc         1 P62       0.059700
     40 H4          25.1600     9.0120    46.5530 ha         1 P62       0.114000
     41 H5          24.4390     7.5390    48.3730 ha         1 P62       0.130500
     42 H6          27.4610     9.2090    50.9180 ha         1 P62       0.130500
     43 H           23.9980    12.2390    43.5800 hn         1 P62       0.464000
     44 H20         24.4690    10.5570    42.2600 hn         1 P62       0.461000
@<TRIPOS>BOND
     1     1    11 2   
     2     1    12 1   
     3     2     4 2   
     4     2     6 1   
     5     2    19 1   
     6     3    11 1   
     7     3    24 1   
     8     4    11 1   
     9     4    13 1   
    10     5    14 ar  
    11     5    18 ar  
    12     5    25 1   
    13     6    20 1   
    14     6    26 1   
    15     6    27 1   
    16     7     8 1   
    17     7    20 1   
    18     7    28 1   
    19     7    29 1   
    20     8    21 1   
    21     8    30 1   
    22     8    31 1   
    23     9    21 1   
    24     9    32 1   
    25     9    33 1   
    26     9    34 1   
    27    10    21 1   
    28    10    35 1   
    29    10    36 1   
    30    10    37 1   
    31    12    19 1   
    32    12    22 2   
    33    13    14 1   
    34    13    38 1   
    35    13    39 1   
    36    14    15 ar  
    37    15    16 ar  
    38    15    40 1   
    39    16    17 ar  
    40    16    41 1   
    41    17    18 ar  
    42    17    23 1   
    43    18    42 1   
    44    19    43 1   
    45    20    44 1   
@<TRIPOS>SUBSTRUCTURE
     1 P62         1 TEMP              0 ****  ****    0 ROOT
