@<TRIPOS>MOLECULE
P63
   45    48     1     0     0
SMALL
abcg2


@<TRIPOS>ATOM
      1 N01         -3.8070    -2.3030     0.2690 nc         1 P63      -0.600100
      2 C02         -3.4430    -3.5540     0.3730 cd         1 P63       0.461500
      3 C03         -2.0370    -3.7110     0.3490 cd         1 P63      -0.248300
      4 C04         -1.5340    -2.4180     0.2190 cc         1 P63       0.250500
      5 N05         -2.6440    -1.6250     0.1750 na         1 P63      -0.169600
      6 N06         -0.3060    -1.9190     0.1430 nc         1 P63      -0.257000
      7 C07         -0.2540    -0.6060     0.0260 cd         1 P63       0.453900
      8 N08         -1.3150     0.2360    -0.0260 nd         1 P63      -0.350000
      9 C09         -2.5110    -0.2690     0.0490 cc         1 P63       0.622400
     10 N10         -3.6470     0.4250     0.0170 nu         1 P63      -0.917900
     11 C11         -3.8610     1.8070    -0.0860 ca         1 P63       0.293000
     12 C12         -2.8530     2.7540    -0.2570 ca         1 P63      -0.135500
     13 C13         -3.1910     4.0980    -0.3480 ca         1 P63      -0.085000
     14 C14         -4.5110     4.5160    -0.2740 ca         1 P63      -0.123000
     15 C15         -5.5120     3.5670    -0.1060 ca         1 P63      -0.085000
     16 C16         -5.1920     2.2240    -0.0120 ca         1 P63      -0.135500
     17 N17          0.9300     0.0340    -0.0540 nu         1 P63      -0.907900
     18 C18          2.2430    -0.4380    -0.0120 ca         1 P63       0.327000
     19 C19          3.2280     0.5510    -0.1180 ca         1 P63      -0.190000
     20 C20          4.5740     0.2110    -0.0800 ca         1 P63       0.007000
     21 C21          4.9370    -1.1320     0.0670 ca         1 P63      -0.189000
     22 C22          3.9550    -2.0970     0.1680 ca         1 P63      -0.058000
     23 C23          2.6040    -1.7750     0.1290 ca         1 P63      -0.147000
     24 C25         -1.2840    -4.8930     0.4350 ch         1 P63       0.346700
     25 N26         -0.6650    -5.8640     0.5030 n1         1 P63      -0.478000
     26 N27          5.6170     1.1350    -0.1730 ns         1 P63      -0.147000
     27 C28          5.5710     2.4760    -0.3870 c          1 P63       0.610100
     28 O29          4.5370     3.1040    -0.5340 o          1 P63      -0.587100
     29 C30          6.9190     3.1480    -0.4270 c3         1 P63      -0.182100
     30 H02         -4.1830    -4.3350     0.4650 h4         1 P63       0.058800
     31 HN10        -4.4860    -0.1380     0.0990 hn         1 P63       0.537000
     32 H12         -1.8180     2.4580    -0.3170 ha         1 P63       0.132000
     33 H13         -2.4010     4.8250    -0.4800 ha         1 P63       0.119000
     34 H14         -4.7580     5.5660    -0.3460 ha         1 P63       0.120000
     35 H15         -6.5490     3.8690    -0.0470 ha         1 P63       0.119000
     36 H16         -5.9800     1.4920     0.1180 ha         1 P63       0.132000
     37 HN17         0.8360     1.0360    -0.1430 hn         1 P63       0.518000
     38 H19          2.9280     1.5820    -0.2300 ha         1 P63       0.147000
     39 H21          5.9830    -1.4130     0.1020 ha         1 P63       0.112000
     40 H22          4.2420    -3.1340     0.2800 ha         1 P63       0.120000
     41 H23          1.8610    -2.5490     0.2080 ha         1 P63       0.160000
     42 HN27         6.5370     0.7360    -0.0750 hn         1 P63       0.151000
     43 H301         7.7600     2.4620    -0.3560 hc         1 P63       0.064700
     44 H302         7.0100     3.7120    -1.3550 hc         1 P63       0.064700
     45 H303         6.9860     3.8610     0.3950 hc         1 P63       0.064700
@<TRIPOS>BOND
     1     1     2 2   
     2     1     5 1   
     3     2     3 1   
     4     2    30 1   
     5     3     4 2   
     6     3    24 1   
     7     4     5 1   
     8     4     6 1   
     9     5     9 1   
    10     6     7 2   
    11     7     8 1   
    12     7    17 1   
    13     8     9 2   
    14     9    10 1   
    15    10    11 1   
    16    10    31 1   
    17    11    12 ar  
    18    11    16 ar  
    19    12    13 ar  
    20    12    32 1   
    21    13    14 ar  
    22    13    33 1   
    23    14    15 ar  
    24    14    34 1   
    25    15    16 ar  
    26    15    35 1   
    27    16    36 1   
    28    17    18 1   
    29    17    37 1   
    30    18    19 ar  
    31    18    23 ar  
    32    19    20 ar  
    33    19    38 1   
    34    20    21 ar  
    35    20    26 1   
    36    21    22 ar  
    37    21    39 1   
    38    22    23 ar  
    39    22    40 1   
    40    23    41 1   
    41    24    25 3   
    42    26    27 1   
    43    26    42 1   
    44    27    28 2   
    45    27    29 1   
    46    29    43 1   
    47    29    44 1   
    48    29    45 1   
@<TRIPOS>SUBSTRUCTURE
     1 P63         1 TEMP              0 ****  ****    0 ROOT
