@<TRIPOS>MOLECULE
P63
   45    48     1     0     0
SMALL
No Charge or Current Charge


@<TRIPOS>ATOM
      1 N01         -3.8880    -2.4040    -0.2800 nc         1 P63      -0.600100
      2 C02         -3.4070    -3.6500    -0.2360 cd         1 P63       0.461500
      3 C03         -1.9870    -3.7110    -0.1230 cd         1 P63      -0.248300
      4 C04         -1.5650    -2.4150    -0.0950 cc         1 P63       0.250500
      5 N05         -2.7030    -1.6930    -0.1910 na         1 P63      -0.169600
      6 N06         -0.3050    -1.9380     0.0120 nc         1 P63      -0.257000
      7 C07         -0.2740    -0.6090     0.0330 cd         1 P63       0.453900
      8 N08         -1.3620     0.2530    -0.0810 nd         1 P63      -0.350000
      9 C09         -2.5680    -0.3060    -0.2010 cc         1 P63       0.622400
     10 N10         -3.7090     0.4410    -0.2990 nu         1 P63      -0.917900
     11 C11         -3.9910     1.8000    -0.1790 ca         1 P63       0.293000
     12 C12         -3.1250     2.7830    -0.6940 ca         1 P63      -0.135500
     13 C13         -3.4420     4.1470    -0.5690 ca         1 P63      -0.085000
     14 C14         -4.6320     4.5350     0.0680 ca         1 P63      -0.123000
     15 C15         -5.5070     3.5590     0.5740 ca         1 P63      -0.085000
     16 C16         -5.1860     2.1960     0.4450 ca         1 P63      -0.135500
     17 N17          0.9120     0.0550     0.1150 nu         1 P63      -0.907900
     18 C18          2.2390    -0.3140     0.3590 ca         1 P63       0.327000
     19 C19          3.2530     0.5730    -0.0370 ca         1 P63      -0.190000
     20 C20          4.6140     0.2700     0.1860 ca         1 P63       0.007000
     21 C21          4.9430    -0.9400     0.8220 ca         1 P63      -0.189000
     22 C22          3.9380    -1.8270     1.2360 ca         1 P63      -0.058000
     23 C23          2.5890    -1.5120     1.0090 ca         1 P63      -0.147000
     24 C25         -1.1870    -4.8710    -0.0520 ch         1 P63       0.346700
     25 N26         -0.5490    -5.8470     0.0090 n1         1 P63      -0.478000
     26 N27          5.6880     1.1190    -0.1980 ns         1 P63      -0.147000
     27 C28          5.7250     2.3710    -0.7990 c          1 P63       0.610100
     28 O29          4.7370     3.0200    -1.1240 o          1 P63      -0.587100
     29 C30          7.1350     2.9050    -1.0330 c3         1 P63      -0.182100
     30 H02         -4.0990    -4.4820    -0.2860 h4         1 P63       0.058800
     31 HN10        -4.5080    -0.1890    -0.2250 hn         1 P63       0.537000
     32 H12         -2.2110     2.4950    -1.2050 ha         1 P63       0.132000
     33 H13         -2.7670     4.9020    -0.9690 ha         1 P63       0.119000
     34 H14         -4.8790     5.5910     0.1650 ha         1 P63       0.120000
     35 H15         -6.4310     3.8580     1.0640 ha         1 P63       0.119000
     36 H16         -5.8670     1.4470     0.8400 ha         1 P63       0.132000
     37 HN17         0.7890     1.0460    -0.0870 hn         1 P63       0.518000
     38 H19          2.9650     1.4940    -0.5300 ha         1 P63       0.147000
     39 H21          5.9850    -1.1940     1.0040 ha         1 P63       0.112000
     40 H22          4.2030    -2.7560     1.7390 ha         1 P63       0.120000
     41 H23          1.8270    -2.1990     1.3590 ha         1 P63       0.160000
     42 HN27         6.6010     0.7350     0.0050 hn         1 P63       0.151000
     43 H301         7.7010     2.1720    -1.6200 hc         1 P63       0.064700
     44 H302         7.1400     3.8930    -1.5060 hc         1 P63       0.064700
     45 H303         7.6780     2.9090    -0.0810 hc         1 P63       0.064700
@<TRIPOS>BOND
     1     1     2 2   
     2     1     5 1   
     3     2     3 1   
     4     2    30 1   
     5     3     4 2   
     6     3    24 1   
     7     4     5 1   
     8     4     6 1   
     9     5     9 1   
    10     6     7 2   
    11     7     8 1   
    12     7    17 1   
    13     8     9 2   
    14     9    10 1   
    15    10    11 1   
    16    10    31 1   
    17    11    12 ar  
    18    11    16 ar  
    19    12    13 ar  
    20    12    32 1   
    21    13    14 ar  
    22    13    33 1   
    23    14    15 ar  
    24    14    34 1   
    25    15    16 ar  
    26    15    35 1   
    27    16    36 1   
    28    17    18 1   
    29    17    37 1   
    30    18    19 ar  
    31    18    23 ar  
    32    19    20 ar  
    33    19    38 1   
    34    20    21 ar  
    35    20    26 1   
    36    21    22 ar  
    37    21    39 1   
    38    22    23 ar  
    39    22    40 1   
    40    23    41 1   
    41    24    25 3   
    42    26    27 1   
    43    26    42 1   
    44    27    28 2   
    45    27    29 1   
    46    29    43 1   
    47    29    44 1   
    48    29    45 1   
@<TRIPOS>SUBSTRUCTURE
     1 P63         1 TEMP              0 ****  ****    0 ROOT
