@<TRIPOS>MOLECULE
P64
   48    50     1     0     0
SMALL
abcg2


@<TRIPOS>ATOM
      1 C28          8.3040     0.7130    -0.4350 c3         1 P64       0.212100
      2 N27          7.4980    -0.2200     0.3150 nh         1 P64      -0.821400
      3 C29          8.1640    -1.3320     0.9520 c3         1 P64       0.212100
      4 C26          4.1360     0.5590    -0.9990 ca         1 P64      -0.063500
      5 C25          5.5000     0.6370    -0.7650 ca         1 P64      -0.187000
      6 C24          6.1520    -0.3060     0.0510 ca         1 P64       0.328000
      7 C23          5.3590    -1.3370     0.5860 ca         1 P64      -0.187000
      8 C22          3.9960    -1.3920     0.3390 ca         1 P64      -0.063500
      9 C21          3.3480    -0.4500    -0.4540 ca         1 P64      -0.134300
     10 C14          1.8630    -0.4970    -0.6810 c3         1 P64      -0.023100
     11 C13          1.1080     0.4100     0.2860 c3         1 P64       0.160800
     12 N12         -0.3210     0.3440     0.0510 n7         1 P64      -0.864400
     13 C11         -1.0750     1.1900     0.9470 c3         1 P64       0.206100
     14 C10         -4.5410    -0.0470    -0.0930 ca         1 P64       0.325000
     15 C09         -3.1400     0.0430     0.0630 ca         1 P64      -0.087000
     16 C08         -2.5650     1.0800     0.7570 ca         1 P64      -0.067300
     17 C07         -3.3930     2.0730     1.3300 ca         1 P64      -0.130000
     18 C06         -4.7540     2.0050     1.2040 ca         1 P64      -0.074000
     19 C05         -5.3560     0.9500     0.4910 ca         1 P64      -0.131000
     20 C04         -6.7570     0.8250     0.3150 ca         1 P64      -0.029000
     21 C03         -7.2610    -0.2170    -0.3940 ca         1 P64      -0.212000
     22 C02         -6.3520    -1.1740    -0.9470 ca         1 P64       0.614900
     23 N02         -6.8450    -2.1940    -1.6940 nv         1 P64      -1.069900
     24 N01         -5.0510    -1.0870    -0.7950 nb         1 P64      -0.758000
     25 H1           7.9660     1.7410    -0.2870 h1         1 P64       0.034367
     26 H2           9.3320     0.6620    -0.0850 h1         1 P64       0.034367
     27 H3           8.3050     0.5130    -1.5130 h1         1 P64       0.034367
     28 H4           8.1370    -2.2510     0.3540 h1         1 P64       0.034367
     29 H5           9.2060    -1.0740     1.1230 h1         1 P64       0.034367
     30 H6           7.7260    -1.5550     1.9260 h1         1 P64       0.034367
     31 H8           6.0530     1.4410    -1.2300 ha         1 P64       0.110500
     32 H9           5.7980    -2.1120     1.1980 ha         1 P64       0.110500
     33 H10          3.4250    -2.2050     0.7750 ha         1 P64       0.106500
     34 H11          1.6340    -0.1920    -1.7070 hc         1 P64       0.050200
     35 H12          1.4960    -1.5200    -0.5670 hc         1 P64       0.050200
     36 H13          1.3070     0.0870     1.3120 h1         1 P64       0.032200
     37 H14          1.5030     1.4350     0.2030 h1         1 P64       0.032200
     38 H15         -0.5100     0.6270    -0.9040 hn         1 P64       0.410000
     39 H17         -0.8350     0.8950     1.9750 h1         1 P64       0.037700
     40 H18         -0.7900     2.2520     0.8750 h1         1 P64       0.037700
     41 H19         -2.5240    -0.7280    -0.3830 ha         1 P64       0.144000
     42 H20         -2.9400     2.8960     1.8690 ha         1 P64       0.110000
     43 H21         -5.3820     2.7700     1.6470 ha         1 P64       0.110000
     44 H22         -7.4200     1.5640     0.7490 ha         1 P64       0.115000
     45 H23         -8.3260    -0.3330    -0.5450 ha         1 P64       0.119000
     46 H24         -7.8160    -2.4380    -1.6030 hn         1 P64       0.477000
     47 H25         -6.2260    -2.9610    -1.8960 hn         1 P64       0.477000
     48 H7           3.6790     1.3090    -1.6350 ha         1 P64       0.106500
@<TRIPOS>BOND
     1     1     2 1   
     2     1    25 1   
     3     1    26 1   
     4     1    27 1   
     5     2     3 1   
     6     2     6 1   
     7     3    28 1   
     8     3    29 1   
     9     3    30 1   
    10     4     5 ar  
    11     4     9 ar  
    12     4    48 1   
    13     5     6 ar  
    14     5    31 1   
    15     6     7 ar  
    16     7     8 ar  
    17     7    32 1   
    18     8     9 ar  
    19     8    33 1   
    20     9    10 1   
    21    10    11 1   
    22    10    34 1   
    23    10    35 1   
    24    11    12 1   
    25    11    36 1   
    26    11    37 1   
    27    12    13 1   
    28    12    38 1   
    29    13    16 1   
    30    13    39 1   
    31    13    40 1   
    32    14    15 ar  
    33    14    19 ar  
    34    14    24 ar  
    35    15    16 ar  
    36    15    41 1   
    37    16    17 ar  
    38    17    18 ar  
    39    17    42 1   
    40    18    19 ar  
    41    18    43 1   
    42    19    20 ar  
    43    20    21 ar  
    44    20    44 1   
    45    21    22 ar  
    46    21    45 1   
    47    22    23 1   
    48    22    24 ar  
    49    23    46 1   
    50    23    47 1   
@<TRIPOS>SUBSTRUCTURE
     1 P64         1 TEMP              0 ****  ****    0 ROOT
