@<TRIPOS>MOLECULE
P64
   48    50     1     0     0
SMALL
No Charge or Current Charge


@<TRIPOS>ATOM
      1 C28          8.3860     0.8500     0.5890 c3         1 P64       0.212100
      2 N27          7.6080    -0.3550     0.2160 nh         1 P64      -0.821400
      3 C29          8.3480    -1.6370     0.1410 c3         1 P64       0.212100
      4 C26          4.2590     0.9780    -0.8150 ca         1 P64      -0.063500
      5 C25          5.6370     0.9060    -0.5430 ca         1 P64      -0.187000
      6 C24          6.2170    -0.2840    -0.0580 ca         1 P64       0.328000
      7 C23          5.3830    -1.4020     0.1490 ca         1 P64      -0.187000
      8 C22          4.0050    -1.3340    -0.1210 ca         1 P64      -0.063500
      9 C21          3.4360    -0.1430    -0.6060 ca         1 P64      -0.134300
     10 C14          1.9420    -0.0660    -0.8940 c3         1 P64      -0.023100
     11 C13          1.1340     0.3710     0.3460 c3         1 P64       0.160800
     12 N12         -0.3070     0.4340     0.0350 n7         1 P64      -0.864400
     13 C11         -1.1720     0.8240     1.1620 c3         1 P64       0.206100
     14 C10         -4.7310    -0.2720     0.2020 ca         1 P64       0.325000
     15 C09         -3.3830    -0.2990     0.6060 ca         1 P64      -0.087000
     16 C08         -2.6280     0.8850     0.7200 ca         1 P64      -0.067300
     17 C07         -3.2320     2.1200     0.4200 ca         1 P64      -0.130000
     18 C06         -4.5750     2.1710     0.0150 ca         1 P64      -0.074000
     19 C05         -5.3230     0.9840    -0.0940 ca         1 P64      -0.131000
     20 C04         -6.6700     1.0340    -0.4990 ca         1 P64      -0.029000
     21 C03         -7.3710    -0.1760    -0.5920 ca         1 P64      -0.212000
     22 C02         -6.6930    -1.3550    -0.2810 ca         1 P64       0.614900
     23 N02         -7.2520    -2.5660    -0.3230 nv         1 P64      -1.069900
     24 N01         -5.4270    -1.4310     0.1060 nb         1 P64      -0.758000
     25 H1           7.7810     1.5210     1.2140 h1         1 P64       0.034367
     26 H2           9.2790     0.5750     1.1670 h1         1 P64       0.034367
     27 H3           8.7060     1.3950    -0.3090 h1         1 P64       0.034367
     28 H4           7.9620    -2.2580    -0.6780 h1         1 P64       0.034367
     29 H5           9.4150    -1.4620    -0.0510 h1         1 P64       0.034367
     30 H6           8.2500    -2.1930     1.0830 h1         1 P64       0.034367
     31 H8           6.2510     1.7820    -0.7230 ha         1 P64       0.110500
     32 H9           5.7950    -2.3300     0.5330 ha         1 P64       0.110500
     33 H10          3.3800    -2.2080     0.0510 ha         1 P64       0.106500
     34 H11          1.7520     0.6380    -1.7140 hc         1 P64       0.050200
     35 H12          1.5740    -1.0410    -1.2360 hc         1 P64       0.050200
     36 H13          1.3180    -0.3460     1.1580 h1         1 P64       0.032200
     37 H14          1.4970     1.3530     0.6790 h1         1 P64       0.032200
     38 H15         -0.4450     1.1210    -0.7150 hn         1 P64       0.410000
     39 H17         -1.0790     0.1020     1.9850 h1         1 P64       0.037700
     40 H18         -0.8720     1.8060     1.5540 h1         1 P64       0.037700
     41 H19         -2.9190    -1.2540     0.8320 ha         1 P64       0.144000
     42 H20         -2.6610     3.0420     0.5020 ha         1 P64       0.110000
     43 H21         -5.0320     3.1320    -0.2130 ha         1 P64       0.110000
     44 H22         -7.1570     1.9790    -0.7330 ha         1 P64       0.115000
     45 H23         -8.4120    -0.1960    -0.9000 ha         1 P64       0.119000
     46 H24         -8.2630    -2.6120    -0.2470 hn         1 P64       0.477000
     47 H25         -6.7300    -3.2930     0.1500 hn         1 P64       0.477000
     48 H7           3.8340     1.9070    -1.1890 ha         1 P64       0.106500
@<TRIPOS>BOND
     1     1     2 1   
     2     1    25 1   
     3     1    26 1   
     4     1    27 1   
     5     2     3 1   
     6     2     6 1   
     7     3    28 1   
     8     3    29 1   
     9     3    30 1   
    10     4     5 ar  
    11     4     9 ar  
    12     4    48 1   
    13     5     6 ar  
    14     5    31 1   
    15     6     7 ar  
    16     7     8 ar  
    17     7    32 1   
    18     8     9 ar  
    19     8    33 1   
    20     9    10 1   
    21    10    11 1   
    22    10    34 1   
    23    10    35 1   
    24    11    12 1   
    25    11    36 1   
    26    11    37 1   
    27    12    13 1   
    28    12    38 1   
    29    13    16 1   
    30    13    39 1   
    31    13    40 1   
    32    14    15 ar  
    33    14    19 ar  
    34    14    24 ar  
    35    15    16 ar  
    36    15    41 1   
    37    16    17 ar  
    38    17    18 ar  
    39    17    42 1   
    40    18    19 ar  
    41    18    43 1   
    42    19    20 ar  
    43    20    21 ar  
    44    20    44 1   
    45    21    22 ar  
    46    21    45 1   
    47    22    23 1   
    48    22    24 ar  
    49    23    46 1   
    50    23    47 1   
@<TRIPOS>SUBSTRUCTURE
     1 P64         1 TEMP              0 ****  ****    0 ROOT
