@<TRIPOS>MOLECULE
P65
   38    39     1     0     0
SMALL
bcc


@<TRIPOS>ATOM
      1 NH2          4.6570    -0.3410     2.3670 nv         1 P65      -0.949500
      2 C5           5.2340    -0.0420     1.1840 ca         1 P65       0.730200
      3 N4           6.3910     0.6100     1.1980 nb         1 P65      -0.848000
      4 C3           6.9280     0.9140     0.0170 ca         1 P65       0.934900
      5 NH1          8.0760     1.6380     0.0380 nv         1 P65      -0.939500
      6 N2           6.4350     0.6020    -1.1800 nb         1 P65      -0.805000
      7 C6           4.6140    -0.3900    -0.0320 ca         1 P65      -0.274500
      8 C1           5.2690    -0.0520    -1.1970 ca         1 P65       0.515600
      9 CM1          4.7000    -0.4090    -2.5350 c3         1 P65      -0.150400
     10 O7           3.4210    -1.0590    -0.0260 os         1 P65      -0.318900
     11 C8           2.2800    -0.2060    -0.0490 c3         1 P65       0.128400
     12 C9           1.0410    -1.0780     0.0070 c3         1 P65      -0.087400
     13 C10         -0.2070    -0.2210    -0.0070 c3         1 P65       0.141400
     14 O11         -1.3270    -1.0980     0.0280 os         1 P65      -0.301900
     15 C12         -2.5560    -0.5840     0.0240 ca         1 P65       0.169100
     16 C17         -2.8470     0.7750    -0.0070 ca         1 P65      -0.210000
     17 C16         -4.1650     1.2120    -0.0100 ca         1 P65       0.067400
     18 CL3         -4.4760     2.9030    -0.0470 cl         1 P65      -0.072400
     19 C15         -5.2110     0.3030     0.0180 ca         1 P65      -0.009600
     20 CL2         -6.8500     0.8300     0.0130 cl         1 P65      -0.072400
     21 C14         -4.9310    -1.0560     0.0490 ca         1 P65      -0.072000
     22 C13         -3.6230    -1.4910     0.0520 ca         1 P65      -0.012600
     23 CL1         -3.2830    -3.1790     0.0910 cl         1 P65      -0.073400
     24 H1           3.9430    -1.0480     2.3980 hn         1 P65       0.434300
     25 H2           5.2190    -0.2470     3.1960 hn         1 P65       0.434300
     26 H3           8.6210     1.6690    -0.8060 hn         1 P65       0.432300
     27 H4           8.5950     1.6690     0.8990 hn         1 P65       0.432300
     28 H5           4.3230    -1.4310    -2.5540 hc         1 P65       0.057033
     29 H6           3.8630     0.2450    -2.7890 hc         1 P65       0.057033
     30 H7           5.4560    -0.2960    -3.3080 hc         1 P65       0.057033
     31 H8           2.3030     0.4840     0.8030 h1         1 P65       0.032700
     32 H9           2.2780     0.4010    -0.9610 h1         1 P65       0.032700
     33 H10          1.0320    -1.7550    -0.8510 hc         1 P65       0.070200
     34 H11          1.0600    -1.6860     0.9140 hc         1 P65       0.070200
     35 H12         -0.2240     0.4480     0.8590 h1         1 P65       0.040700
     36 H13         -0.2410     0.3950    -0.9120 h1         1 P65       0.040700
     37 H14         -2.0590     1.5130    -0.0280 ha         1 P65       0.156000
     38 H15         -5.7390    -1.7740     0.0700 ha         1 P65       0.166000
@<TRIPOS>BOND
     1     1     2 1   
     2     1    24 1   
     3     1    25 1   
     4     2     3 ar  
     5     2     7 ar  
     6     3     4 ar  
     7     4     5 1   
     8     4     6 ar  
     9     5    26 1   
    10     5    27 1   
    11     6     8 ar  
    12     7     8 ar  
    13     7    10 1   
    14     8     9 1   
    15     9    28 1   
    16     9    29 1   
    17     9    30 1   
    18    10    11 1   
    19    11    12 1   
    20    11    31 1   
    21    11    32 1   
    22    12    13 1   
    23    12    33 1   
    24    12    34 1   
    25    13    14 1   
    26    13    35 1   
    27    13    36 1   
    28    14    15 1   
    29    15    16 ar  
    30    15    22 ar  
    31    16    17 ar  
    32    16    37 1   
    33    17    18 1   
    34    17    19 ar  
    35    19    20 1   
    36    19    21 ar  
    37    21    22 ar  
    38    21    38 1   
    39    22    23 1   
@<TRIPOS>SUBSTRUCTURE
     1 P65         1 TEMP              0 ****  ****    0 ROOT
