@<TRIPOS>MOLECULE
P65
   38    39     1     0     0
SMALL
No Charge or Current Charge


@<TRIPOS>ATOM
      1 NH2          5.1020    -0.6180     2.4740 nv         1 P65      -1.059900
      2 C5           5.5150    -0.1980     1.2490 ca         1 P65       0.401900
      3 N4           6.7530     0.3050     1.2080 nb         1 P65      -0.322000
      4 C3           7.1670     0.7170     0.0050 ca         1 P65       0.408900
      5 NH1          8.4180     1.2280    -0.0450 nv         1 P65      -1.049900
      6 N2           6.4990     0.6740    -1.1550 nb         1 P65      -0.279000
      7 C6           4.6920    -0.2880     0.1070 ca         1 P65      -0.143900
      8 C1           5.2500     0.1630    -1.1140 ca         1 P65       0.187300
      9 CM1          4.5250     0.0740    -2.4500 c3         1 P65      -0.150400
     10 O7           3.4180    -0.8270     0.1930 os         1 P65      -0.342100
     11 C8           2.2670     0.0070    -0.0210 c3         1 P65       0.151600
     12 C9           1.0160    -0.8690     0.1660 c3         1 P65      -0.087400
     13 C10         -0.2900    -0.0830    -0.0370 c3         1 P65       0.164600
     14 O11         -1.3800    -0.9980     0.1600 os         1 P65      -0.325100
     15 C12         -2.7040    -0.6120     0.0490 ca         1 P65       0.169100
     16 C17         -3.0730     0.7150    -0.2680 ca         1 P65      -0.192000
     17 C16         -4.4310     1.0630    -0.3710 ca         1 P65       0.159000
     18 Cl3         -4.8540     2.7280    -0.7680 cl         1 P65      -0.164000
     19 C15         -5.4310     0.0910    -0.1590 ca         1 P65       0.082000
     20 Cl2         -7.1430     0.5020    -0.2820 cl         1 P65      -0.164000
     21 C14         -5.0670    -1.2280     0.1560 ca         1 P65      -0.054000
     22 C13         -3.7100    -1.5800     0.2600 ca         1 P65       0.079000
     23 Cl1         -3.2880    -3.2470     0.6570 cl         1 P65      -0.165000
     24 H1           4.2670    -1.1970     2.5080 hn         1 P65       0.489500
     25 H2           5.8010    -0.7760     3.1950 hn         1 P65       0.489500
     26 H3           8.8560     1.3390    -0.9560 hn         1 P65       0.487500
     27 H4           9.0370     1.0750     0.7470 hn         1 P65       0.487500
     28 H5           3.8600    -0.7960    -2.4860 hc         1 P65       0.057033
     29 H6           3.9230     0.9730    -2.6280 hc         1 P65       0.057033
     30 H7           5.2310    -0.0220    -3.2840 hc         1 P65       0.057033
     31 H8           2.2510     0.8330     0.7020 h1         1 P65       0.032700
     32 H9           2.2640     0.4340    -1.0310 h1         1 P65       0.032700
     33 H10          1.0500    -1.7010    -0.5460 hc         1 P65       0.070200
     34 H11          1.0240    -1.2980     1.1750 hc         1 P65       0.070200
     35 H12         -0.3390     0.7420     0.6860 h1         1 P65       0.040700
     36 H13         -0.3130     0.3350    -1.0530 h1         1 P65       0.040700
     37 H14         -2.3280     1.4850    -0.4370 ha         1 P65       0.138000
     38 H15         -5.8360    -1.9780     0.3190 ha         1 P65       0.148000
@<TRIPOS>BOND
     1     1     2 1   
     2     1    24 1   
     3     1    25 1   
     4     2     3 ar  
     5     2     7 ar  
     6     3     4 ar  
     7     4     5 1   
     8     4     6 ar  
     9     5    26 1   
    10     5    27 1   
    11     6     8 ar  
    12     7     8 ar  
    13     7    10 1   
    14     8     9 1   
    15     9    28 1   
    16     9    29 1   
    17     9    30 1   
    18    10    11 1   
    19    11    12 1   
    20    11    31 1   
    21    11    32 1   
    22    12    13 1   
    23    12    33 1   
    24    12    34 1   
    25    13    14 1   
    26    13    35 1   
    27    13    36 1   
    28    14    15 1   
    29    15    16 ar  
    30    15    22 ar  
    31    16    17 ar  
    32    16    37 1   
    33    17    18 1   
    34    17    19 ar  
    35    19    20 1   
    36    19    21 ar  
    37    21    22 ar  
    38    21    38 1   
    39    22    23 1   
@<TRIPOS>SUBSTRUCTURE
     1 P65         1 TEMP              0 ****  ****    0 ROOT
