@<TRIPOS>MOLECULE
P66
   46    50     1     0     0
SMALL
bcc


@<TRIPOS>ATOM
      1 N1          -0.0620    -0.9830    -0.0650 nb         1 P66      -0.424000
      2 N3           3.7590     0.3140    -0.0540 na         1 P66       0.201800
      3 C4           5.0260    -0.2910    -0.0710 ca         1 P66      -0.093200
      4 C5           5.4520    -1.0210    -1.1720 ca         1 P66       0.186900
      5 C6           5.8880    -0.1820     1.0120 ca         1 P66       0.186900
      6 C7           0.2480     0.2980    -0.0460 ca         1 P66       0.702200
      7 C8           6.6860    -1.6360    -1.2070 ca         1 P66      -0.185500
      8 C10          7.1360    -0.7690     1.0080 ca         1 P66      -0.185500
      9 C13         -2.8060    -0.0480     0.0040 ca         1 P66      -0.101000
     10 C15         -4.9150     1.1170     0.0850 ca         1 P66      -0.134000
     11 C17         -2.8550     2.3420     0.0380 ca         1 P66      -0.023600
     12 C20         -8.3140    -2.5650     0.5110 cx         1 P66      -0.132400
     13 C21         -7.4910    -3.1660    -0.5860 cx         1 P66      -0.132400
     14 C19         -6.8320    -2.6770     0.6630 cx         1 P66       0.046700
     15 N5          -6.0760    -1.4690     0.6150 ns         1 P66      -0.550900
     16 O1          -4.3200    -2.3820    -0.4660 o          1 P66      -0.574100
     17 C14         -4.1940    -0.0700     0.0580 ca         1 P66      -0.116600
     18 C16         -4.2360     2.3240     0.0710 ca         1 P66      -0.100000
     19 CL1         -2.0510     3.8790     0.0340 cl         1 P66      -0.116400
     20 C12         -2.1020     1.1570     0.0050 ca         1 P66       0.179600
     21 N4          -0.7200     1.2560    -0.0250 nu         1 P66      -0.736300
     22 N6           0.8800    -1.9250    -0.0780 nb         1 P66      -0.256000
     23 C11          2.1520    -1.6440    -0.0800 ca         1 P66       0.323200
     24 C1           2.5550    -0.2980    -0.0660 ca         1 P66      -0.094500
     25 C2           1.6020     0.7060    -0.0430 ca         1 P66      -0.373200
     26 C3           2.3500     1.9100    -0.0180 cc         1 P66       0.379800
     27 N2           3.6300     1.6510    -0.0260 nd         1 P66      -0.493100
     28 F1           4.6220    -1.1230    -2.2100 f          1 P66      -0.115400
     29 C9           7.5220    -1.4970    -0.1090 ca         1 P66      -0.061000
     30 F2           5.4770     0.5080     2.0730 f          1 P66      -0.115400
     31 H8           6.9880    -2.2030    -2.0770 ha         1 P66       0.164000
     32 H10          7.7890    -0.6660     1.8640 ha         1 P66       0.164000
     33 H13         -2.2520    -0.9720    -0.0330 ha         1 P66       0.203000
     34 H15         -5.9960     1.1280     0.0900 ha         1 P66       0.138000
     35 H20A        -8.9320    -3.2150     1.1160 hc         1 P66       0.077450
     36 H21         -7.5360    -4.2360    -0.7430 hc         1 P66       0.077450
     37 H21A        -7.3500    -2.5830    -1.4860 hc         1 P66       0.077450
     38 H19         -6.4580    -3.4290     1.3510 h1         1 P66       0.086700
     39 HN5         -6.3920    -0.6950     1.1770 hn         1 P66       0.318500
     40 H16         -4.7840     3.2560     0.0820 ha         1 P66       0.149000
     41 HN4         -0.3690     2.2020    -0.0250 hn         1 P66       0.452800
     42 H11          2.8470    -2.4740    -0.0850 h4         1 P66       0.040100
     43 H3           2.0050     2.9330     0.0050 h4         1 P66       0.058800
     44 H9           8.4950    -1.9690    -0.1210 ha         1 P66       0.147000
     45 C18         -4.8600    -1.4120     0.0420 c          1 P66       0.676700
     46 H20         -8.7280    -1.5780     0.3470 hc         1 P66       0.077450
@<TRIPOS>BOND
     1     1     6 ar  
     2     1    22 ar  
     3     2     3 1   
     4     2    24 1   
     5     2    27 1   
     6     3     4 ar  
     7     3     5 ar  
     8     4     7 ar  
     9     4    28 1   
    10     5     8 ar  
    11     5    30 1   
    12     6    21 1   
    13     6    25 ar  
    14     7    29 ar  
    15     7    31 1   
    16     8    29 ar  
    17     8    32 1   
    18     9    17 ar  
    19     9    20 ar  
    20     9    33 1   
    21    10    17 ar  
    22    10    18 ar  
    23    10    34 1   
    24    11    18 ar  
    25    11    19 1   
    26    11    20 ar  
    27    12    13 1   
    28    12    14 1   
    29    12    35 1   
    30    12    46 1   
    31    13    14 1   
    32    13    36 1   
    33    13    37 1   
    34    14    15 1   
    35    14    38 1   
    36    15    39 1   
    37    15    45 1   
    38    16    45 2   
    39    17    45 1   
    40    18    40 1   
    41    20    21 1   
    42    21    41 1   
    43    22    23 ar  
    44    23    24 ar  
    45    23    42 1   
    46    24    25 ar  
    47    25    26 1   
    48    26    27 2   
    49    26    43 1   
    50    29    44 1   
@<TRIPOS>SUBSTRUCTURE
     1 P66         1 TEMP              0 ****  ****    0 ROOT
