@<TRIPOS>MOLECULE
P66
   46    50     1     0     0
SMALL
No Charge or Current Charge


@<TRIPOS>ATOM
      1 N1           0.1430    -0.8310     0.9620 nb         1 P66      -0.424000
      2 N3           3.8100     0.3310    -0.3910 na         1 P66       0.201800
      3 C4           5.0650    -0.2630    -0.3470 ca         1 P66      -0.093200
      4 C5           5.4830    -1.1240    -1.3790 ca         1 P66       0.222000
      5 C6           5.9320    -0.0200     0.7350 ca         1 P66       0.222000
      6 C7           0.3690     0.3380     0.3060 ca         1 P66       0.636900
      7 C8           6.7490    -1.7300    -1.3330 ca         1 P66      -0.167500
      8 C10          7.1980    -0.6250     0.7840 ca         1 P66      -0.167500
      9 C13         -2.7640    -0.1000     0.1640 ca         1 P66      -0.083000
     10 C15         -4.8890     1.0130     0.5720 ca         1 P66      -0.116000
     11 C17         -2.8240     2.3040     0.5110 ca         1 P66       0.068000
     12 C20         -8.5290    -2.5470     0.1660 cx         1 P66      -0.132400
     13 C21         -7.7390    -3.0010    -1.0370 cx         1 P66      -0.132400
     14 C19         -7.0350    -2.7320     0.2700 cx         1 P66       0.046700
     15 N5          -6.2220    -1.5490     0.3590 ns         1 P66      -0.483900
     16 O1          -4.2280    -2.5540    -0.0510 o          1 P66      -0.574100
     17 C14         -4.1690    -0.1790     0.3150 ca         1 P66      -0.116600
     18 C16         -4.2170     2.2430     0.6640 ca         1 P66      -0.082000
     19 Cl1         -2.0260     3.8790     0.6260 cl         1 P66      -0.208000
     20 C12         -2.0780     1.1270     0.2730 ca         1 P66       0.318000
     21 N4          -0.6830     1.2130     0.1090 nu         1 P66      -0.929900
     22 N6           1.1570    -1.7170     1.2080 nb         1 P66      -0.256000
     23 C11          2.4310    -1.4440     0.8040 ca         1 P66       0.257900
     24 C1           2.6750    -0.2350     0.1350 ca         1 P66      -0.029200
     25 C2           1.6640     0.6410    -0.1050 ca         1 P66      -0.307900
     26 C3           2.2600     1.7490    -0.8010 cc         1 P66       0.379800
     27 N2           3.5810     1.5710    -0.9840 nd         1 P66      -0.493100
     28 F1           4.6670    -1.3840    -2.4260 f          1 P66      -0.150500
     29 C9           7.6120    -1.4820    -0.2510 ca         1 P66      -0.043000
     30 F2           5.5510     0.7940     1.7460 f          1 P66      -0.150500
     31 H8           7.0590    -2.3940    -2.1360 ha         1 P66       0.146000
     32 H10          7.8570    -0.4290     1.6260 ha         1 P66       0.146000
     33 H13         -2.2030    -1.0010    -0.0570 ha         1 P66       0.185000
     34 H15         -5.9690     1.0080     0.6950 ha         1 P66       0.120000
     35 H20A        -9.1620    -3.2790     0.6620 hc         1 P66       0.077450
     36 H21         -7.8400    -4.0370    -1.3500 hc         1 P66       0.077450
     37 H21A        -7.5970    -2.2910    -1.8490 hc         1 P66       0.077450
     38 H19         -6.6610    -3.5840     0.8400 h1         1 P66       0.086700
     39 HN5         -6.6630    -0.6630     0.5620 hn         1 P66       0.318500
     40 H16         -4.7800     3.1540     0.8530 ha         1 P66       0.131000
     41 HN4         -0.3620     2.1630    -0.0580 hn         1 P66       0.508000
     42 H11          3.2110    -2.1740     1.0160 h4         1 P66       0.040100
     43 H3           1.8240     2.6610    -1.1850 h4         1 P66       0.058800
     44 H9           8.5930    -1.9520    -0.2140 ha         1 P66       0.129000
     45 C18         -4.8520    -1.5290     0.1900 c          1 P66       0.609700
     46 H20         -8.9240    -1.5340     0.1600 hc         1 P66       0.077450
@<TRIPOS>BOND
     1     1     6 ar  
     2     1    22 ar  
     3     2     3 1   
     4     2    24 1   
     5     2    27 1   
     6     3     4 ar  
     7     3     5 ar  
     8     4     7 ar  
     9     4    28 1   
    10     5     8 ar  
    11     5    30 1   
    12     6    21 1   
    13     6    25 ar  
    14     7    29 ar  
    15     7    31 1   
    16     8    29 ar  
    17     8    32 1   
    18     9    17 ar  
    19     9    20 ar  
    20     9    33 1   
    21    10    17 ar  
    22    10    18 ar  
    23    10    34 1   
    24    11    18 ar  
    25    11    19 1   
    26    11    20 ar  
    27    12    13 1   
    28    12    14 1   
    29    12    35 1   
    30    12    46 1   
    31    13    14 1   
    32    13    36 1   
    33    13    37 1   
    34    14    15 1   
    35    14    38 1   
    36    15    39 1   
    37    15    45 1   
    38    16    45 2   
    39    17    45 1   
    40    18    40 1   
    41    20    21 1   
    42    21    41 1   
    43    22    23 ar  
    44    23    24 ar  
    45    23    42 1   
    46    24    25 ar  
    47    25    26 1   
    48    26    27 2   
    49    26    43 1   
    50    29    44 1   
@<TRIPOS>SUBSTRUCTURE
     1 P66         1 TEMP              0 ****  ****    0 ROOT
