@<TRIPOS>MOLECULE
P68
   44    45     1     0     0
SMALL
bcc


@<TRIPOS>ATOM
      1 BR1         -6.6040    -1.4980    -0.3790 br         1 P68      -0.102100
      2 C8          -4.7750    -1.0270    -0.4100 ca         1 P68      -0.047900
      3 C7          -3.8170    -1.9970    -0.6660 ca         1 P68      -0.075500
      4 C6          -2.4790    -1.6430    -0.6760 ca         1 P68      -0.166500
      5 C9          -4.3970     0.2860    -0.1820 ca         1 P68      -0.075500
      6 C10         -3.0560     0.6400    -0.2050 ca         1 P68      -0.166500
      7 C5          -2.0770    -0.3260    -0.4430 ca         1 P68       0.101600
      8 N2          -0.7160    -0.0420    -0.5170 ns         1 P68      -0.498100
      9 C4          -0.0480     0.9480     0.1770 c          1 P68       0.795100
     10 O           -0.6160     1.7090     0.9430 o          1 P68      -0.620100
     11 N1           1.2820     0.9590    -0.0810 ns         1 P68      -0.587900
     12 C1           2.2370     1.9550     0.4220 c3         1 P68       0.201700
     13 C2           1.8990     3.3430    -0.1240 c3         1 P68      -0.104600
     14 C3           2.2450     1.9980     1.9570 c3         1 P68      -0.104600
     15 C12          3.6130     1.4680    -0.0330 ca         1 P68      -0.111300
     16 C17          4.0050     0.1710     0.2810 ca         1 P68      -0.088000
     17 C16          5.2540    -0.3310    -0.0840 ca         1 P68      -0.134900
     18 C18          5.6570    -1.7110     0.2740 ce         1 P68       0.427900
     19 N4           4.9780    -2.2610     1.2020 n2         1 P68      -0.442200
     20 O2           5.3700    -3.5270     1.5140 oh         1 P68      -0.371500
     21 C19          6.8080    -2.3410    -0.4500 c3         1 P68      -0.158400
     22 C15          6.1270     0.5010    -0.7850 ca         1 P68      -0.105000
     23 C14          5.7510     1.7970    -1.0980 ca         1 P68      -0.137000
     24 C13          4.5040     2.2810    -0.7280 ca         1 P68      -0.103000
     25 H1          -4.0950    -3.0260    -0.8490 ha         1 P68       0.146500
     26 H2          -1.7350    -2.4080    -0.8640 ha         1 P68       0.146500
     27 H3          -5.1370     1.0530     0.0050 ha         1 P68       0.146500
     28 H4          -2.7910     1.6730    -0.0450 ha         1 P68       0.146500
     29 H5          -0.1550    -0.7530    -0.9600 hn         1 P68       0.312500
     30 H6           1.6020     0.4160    -0.8680 hn         1 P68       0.309500
     31 H7           1.9320     3.3650    -1.2140 hc         1 P68       0.050867
     32 H8           0.8990     3.6320     0.1910 hc         1 P68       0.050867
     33 H9           2.5910     4.0940     0.2560 hc         1 P68       0.050867
     34 H10          3.0420     2.6620     2.2940 hc         1 P68       0.050867
     35 H11          1.3040     2.3700     2.3550 hc         1 P68       0.050867
     36 H12          2.4310     1.0100     2.3790 hc         1 P68       0.050867
     37 H13          3.3230    -0.4760     0.8180 ha         1 P68       0.153000
     38 H14          4.7600    -3.7930     2.2100 ho         1 P68       0.431000
     39 H15          7.7550    -1.9180    -0.1080 hc         1 P68       0.056700
     40 H16          6.8550    -3.4160    -0.3000 hc         1 P68       0.056700
     41 H17          6.7390    -2.1490    -1.5200 hc         1 P68       0.056700
     42 H18          7.1050     0.1500    -1.0850 ha         1 P68       0.135000
     43 H19          6.4340     2.4370    -1.6400 ha         1 P68       0.135000
     44 H20          4.2390     3.2940    -0.9960 ha         1 P68       0.137000
@<TRIPOS>BOND
     1     1     2 1   
     2     2     3 ar  
     3     2     5 ar  
     4     3     4 ar  
     5     3    25 1   
     6     4     7 ar  
     7     4    26 1   
     8     5     6 ar  
     9     5    27 1   
    10     6     7 ar  
    11     6    28 1   
    12     7     8 1   
    13     8     9 1   
    14     8    29 1   
    15     9    10 2   
    16     9    11 1   
    17    11    12 1   
    18    11    30 1   
    19    12    13 1   
    20    12    14 1   
    21    12    15 1   
    22    13    31 1   
    23    13    32 1   
    24    13    33 1   
    25    14    34 1   
    26    14    35 1   
    27    14    36 1   
    28    15    16 ar  
    29    15    24 ar  
    30    16    17 ar  
    31    16    37 1   
    32    17    18 1   
    33    17    22 ar  
    34    18    19 2   
    35    18    21 1   
    36    19    20 1   
    37    20    38 1   
    38    21    39 1   
    39    21    40 1   
    40    21    41 1   
    41    22    23 ar  
    42    22    42 1   
    43    23    24 ar  
    44    23    43 1   
    45    24    44 1   
@<TRIPOS>SUBSTRUCTURE
     1 P68         1 TEMP              0 ****  ****    0 ROOT
