@<TRIPOS>MOLECULE
P68
   44    45     1     0     0
SMALL
No Charge or Current Charge


@<TRIPOS>ATOM
      1 Br1         -6.5740    -1.8670    -0.6760 br         1 P68      -0.102100
      2 C8          -4.7700    -1.2390    -0.5800 ca         1 P68      -0.047900
      3 C7          -3.7560    -1.9070    -1.2840 ca         1 P68      -0.057500
      4 C6          -2.4310    -1.4430    -1.2110 ca         1 P68      -0.148500
      5 C9          -4.4600    -0.1100     0.1950 ca         1 P68      -0.057500
      6 C10         -3.1340     0.3530     0.2670 ca         1 P68      -0.148500
      7 C5          -2.1050    -0.3120    -0.4380 ca         1 P68       0.009000
      8 N2          -0.7430     0.0950    -0.4150 ns         1 P68      -0.172000
      9 C4          -0.0910     1.1400     0.2190 c          1 P68       0.661100
     10 O           -0.6320     1.9710     0.9340 o          1 P68      -0.620100
     11 N1           1.2610     1.1350    -0.0550 ns         1 P68      -0.520900
     12 C1           2.2790     2.0800     0.4220 c3         1 P68       0.201700
     13 C2           1.9690     3.4890    -0.1510 c3         1 P68      -0.104600
     14 C3           2.2890     2.1550     1.9730 c3         1 P68      -0.104600
     15 C12          3.6440     1.5210    -0.0510 ca         1 P68      -0.111300
     16 C17          4.0320     0.2210     0.3580 ca         1 P68      -0.070000
     17 C16          5.2550    -0.3560    -0.0530 ca         1 P68      -0.134900
     18 C18          5.6650    -1.7190     0.4330 ce         1 P68       0.427900
     19 N4           5.2240    -2.1280     1.5940 n2         1 P68      -0.343700
     20 O2           5.8270    -3.2900     2.1260 oh         1 P68      -0.509000
     21 C19          6.4380    -2.6160    -0.5290 c3         1 P68      -0.158400
     22 C15          6.1260     0.4090    -0.8570 ca         1 P68      -0.087000
     23 C14          5.7580     1.6950    -1.2750 ca         1 P68      -0.119000
     24 C13          4.5290     2.2480    -0.8840 ca         1 P68      -0.085000
     25 H1          -3.9950    -2.7820    -1.8840 ha         1 P68       0.128500
     26 H2          -1.6530    -1.9690    -1.7600 ha         1 P68       0.128500
     27 H3          -5.2460     0.4080     0.7400 ha         1 P68       0.128500
     28 H4          -2.9310     1.2280     0.8750 ha         1 P68       0.128500
     29 H5          -0.1370    -0.4950    -0.9680 hn         1 P68       0.146000
     30 H6           1.5830     0.4020    -0.6720 hn         1 P68       0.309500
     31 H7           1.9320     3.4670    -1.2470 hc         1 P68       0.050867
     32 H8           1.0030     3.8650     0.2050 hc         1 P68       0.050867
     33 H9           2.7300     4.2140     0.1610 hc         1 P68       0.050867
     34 H10          3.1650     2.7160     2.3200 hc         1 P68       0.050867
     35 H11          1.4000     2.6640     2.3610 hc         1 P68       0.050867
     36 H12          2.3260     1.1570     2.4240 hc         1 P68       0.050867
     37 H13          3.3630    -0.3560     0.9920 ha         1 P68       0.135000
     38 H14          5.3750    -3.4440     2.9920 ho         1 P68       0.470000
     39 H15          7.4710    -2.7540    -0.1930 hc         1 P68       0.056700
     40 H16          5.9730    -3.6060    -0.6030 hc         1 P68       0.056700
     41 H17          6.4670    -2.2070    -1.5450 hc         1 P68       0.056700
     42 H18          7.0950     0.0150    -1.1560 ha         1 P68       0.117000
     43 H19          6.4340     2.2730    -1.9010 ha         1 P68       0.117000
     44 H20          4.2920     3.2480    -1.2350 ha         1 P68       0.119000
@<TRIPOS>BOND
     1     1     2 1   
     2     2     3 ar  
     3     2     5 ar  
     4     3     4 ar  
     5     3    25 1   
     6     4     7 ar  
     7     4    26 1   
     8     5     6 ar  
     9     5    27 1   
    10     6     7 ar  
    11     6    28 1   
    12     7     8 1   
    13     8     9 1   
    14     8    29 1   
    15     9    10 2   
    16     9    11 1   
    17    11    12 1   
    18    11    30 1   
    19    12    13 1   
    20    12    14 1   
    21    12    15 1   
    22    13    31 1   
    23    13    32 1   
    24    13    33 1   
    25    14    34 1   
    26    14    35 1   
    27    14    36 1   
    28    15    16 ar  
    29    15    24 ar  
    30    16    17 ar  
    31    16    37 1   
    32    17    18 1   
    33    17    22 ar  
    34    18    19 2   
    35    18    21 1   
    36    19    20 1   
    37    20    38 1   
    38    21    39 1   
    39    21    40 1   
    40    21    41 1   
    41    22    23 ar  
    42    22    42 1   
    43    23    24 ar  
    44    23    43 1   
    45    24    44 1   
@<TRIPOS>SUBSTRUCTURE
     1 P68         1 TEMP              0 ****  ****    0 ROOT
