@<TRIPOS>MOLECULE
P69
   39    42     1     0     0
SMALL
abcg2


@<TRIPOS>ATOM
      1 FAX         -0.7800     2.7420     2.0060 f          1 P69      -0.188000
      2 CAS         -0.7210     2.6830     0.6620 ca         1 P69       0.173000
      3 CAT         -1.0760     3.8030    -0.0600 ca         1 P69      -0.150000
      4 CAU         -1.0300     3.7390    -1.4460 ca         1 P69      -0.075000
      5 CAV         -0.6310     2.5680    -2.0720 ca         1 P69      -0.126000
      6 CAW         -0.2740     1.4600    -1.3150 ca         1 P69      -0.055000
      7 CAL         -0.3130     1.4930     0.0750 ca         1 P69      -0.186300
      8 CAH          0.0130     0.2990     0.9650 c6         1 P69       0.458200
      9 NAG         -1.1710    -0.3380     1.4900 nu         1 P69      -0.938200
     10 CAE         -1.9000    -1.1050     0.6180 ca         1 P69       0.329000
     11 CAD         -3.2790    -1.2850     0.7510 ca         1 P69      -0.186000
     12 CAC         -3.9530    -2.1070    -0.1330 ca         1 P69      -0.046000
     13 CAB         -3.2790    -2.7640    -1.1620 ca         1 P69      -0.166000
     14 CAA         -1.9130    -2.5990    -1.2850 ca         1 P69      -0.017000
     15 CAF         -1.2150    -1.7750    -0.4040 ca         1 P69      -0.217600
     16 CAJ          0.2560    -1.6830    -0.4800 c          1 P69       0.595600
     17 OAM          0.9330    -2.4480    -1.1470 o          1 P69      -0.540000
     18 NAI          0.8170    -0.6980     0.2800 n          1 P69      -0.251400
     19 CAK          2.2310    -0.5450     0.3260 ca         1 P69      -0.043000
     20 CAN          2.9000    -0.8170     1.5130 ca         1 P69      -0.101000
     21 CAO          4.2750    -0.6500     1.5880 ca         1 P69      -0.105000
     22 CAP          4.9860    -0.2200     0.4750 ca         1 P69      -0.107000
     23 CAQ          4.3150     0.0490    -0.7110 ca         1 P69      -0.105000
     24 CAR          2.9390    -0.1090    -0.7880 ca         1 P69      -0.101000
     25 H1          -1.3840     4.7050     0.4520 ha         1 P69       0.134000
     26 H2          -1.3060     4.6070    -2.0300 ha         1 P69       0.120000
     27 H3          -0.5920     2.5130    -3.1520 ha         1 P69       0.123000
     28 H4           0.0440     0.5640    -1.8300 ha         1 P69       0.128000
     29 H5           0.5950     0.6460     1.8190 h2         1 P69       0.089700
     30 H6          -1.6950     0.2180     2.1480 hn         1 P69       0.485000
     31 H7          -3.8150    -0.7740     1.5420 ha         1 P69       0.116000
     32 H8          -5.0230    -2.2330    -0.0230 ha         1 P69       0.113000
     33 H9          -3.8200    -3.3970    -1.8520 ha         1 P69       0.120000
     34 H10         -1.3700    -3.1120    -2.0680 ha         1 P69       0.133000
     35 H11          2.3450    -1.1630     2.3760 ha         1 P69       0.121000
     36 H12          4.7910    -0.8650     2.5140 ha         1 P69       0.115000
     37 H13          6.0590    -0.0940     0.5320 ha         1 P69       0.114000
     38 H14          4.8630     0.3860    -1.5810 ha         1 P69       0.115000
     39 H15          2.4210     0.1130    -1.7120 ha         1 P69       0.121000
@<TRIPOS>BOND
     1     1     2 1   
     2     2     3 ar  
     3     2     7 ar  
     4     3     4 ar  
     5     3    25 1   
     6     4     5 ar  
     7     4    26 1   
     8     5     6 ar  
     9     5    27 1   
    10     6     7 ar  
    11     6    28 1   
    12     7     8 1   
    13     8     9 1   
    14     8    18 1   
    15     8    29 1   
    16     9    10 1   
    17     9    30 1   
    18    10    11 ar  
    19    10    15 ar  
    20    11    12 ar  
    21    11    31 1   
    22    12    13 ar  
    23    12    32 1   
    24    13    14 ar  
    25    13    33 1   
    26    14    15 ar  
    27    14    34 1   
    28    15    16 1   
    29    16    17 2   
    30    16    18 1   
    31    18    19 1   
    32    19    20 ar  
    33    19    24 ar  
    34    20    21 ar  
    35    20    35 1   
    36    21    22 ar  
    37    21    36 1   
    38    22    23 ar  
    39    22    37 1   
    40    23    24 ar  
    41    23    38 1   
    42    24    39 1   
@<TRIPOS>SUBSTRUCTURE
     1 P69         1 TEMP              0 ****  ****    0 ROOT
