@<TRIPOS>MOLECULE
P69
   39    42     1     0     0
SMALL
No Charge or Current Charge


@<TRIPOS>ATOM
      1 FAX          0.6420     2.7480     2.0680 f          1 P69      -0.188000
      2 CAS          0.0620     2.7540     0.8460 ca         1 P69       0.173000
      3 CAT         -0.0970     3.9790     0.1780 ca         1 P69      -0.150000
      4 CAU         -0.6910     4.0150    -1.0940 ca         1 P69      -0.075000
      5 CAV         -1.1230     2.8220    -1.6950 ca         1 P69      -0.126000
      6 CAW         -0.9640     1.5950    -1.0280 ca         1 P69      -0.055000
      7 CAL         -0.3730     1.5500     0.2550 ca         1 P69      -0.186300
      8 CAH         -0.1780     0.2190     0.9850 c6         1 P69       0.458200
      9 NAG         -1.4700    -0.4110     1.2270 nu         1 P69      -0.938200
     10 CAE         -2.0540    -1.3100     0.3660 ca         1 P69       0.329000
     11 CAD         -3.4400    -1.5160     0.3930 ca         1 P69      -0.186000
     12 CAC         -4.0300    -2.4480    -0.4760 ca         1 P69      -0.046000
     13 CAB         -3.2210    -3.1740    -1.3660 ca         1 P69      -0.166000
     14 CAA         -1.8310    -2.9650    -1.3870 ca         1 P69      -0.017000
     15 CAF         -1.2460    -2.0190    -0.5170 ca         1 P69      -0.217600
     16 CAJ          0.2310    -1.7720    -0.5110 c          1 P69       0.595600
     17 OAM          0.9730    -2.5320    -1.1240 o          1 P69      -0.540000
     18 NAI          0.7330    -0.6770     0.2380 n          1 P69      -0.251400
     19 CAK          2.1400    -0.3400     0.2960 ca         1 P69      -0.043000
     20 CAN          2.7790    -0.1930     1.5490 ca         1 P69      -0.101000
     21 CAO          4.1700    -0.0000     1.6300 ca         1 P69      -0.105000
     22 CAP          4.9510    -0.0020     0.4650 ca         1 P69      -0.107000
     23 CAQ          4.3410    -0.2220    -0.7790 ca         1 P69      -0.105000
     24 CAR          2.9510    -0.4160    -0.8590 ca         1 P69      -0.101000
     25 H1           0.2420     4.8980     0.6480 ha         1 P69       0.134000
     26 H2          -0.8140     4.9640    -1.6130 ha         1 P69       0.120000
     27 H3          -1.5810     2.8470    -2.6820 ha         1 P69       0.123000
     28 H4          -1.3010     0.6810    -1.5120 ha         1 P69       0.128000
     29 H5           0.2910     0.4320     1.9560 h2         1 P69       0.089700
     30 H6          -2.1150     0.0970     1.8320 hn         1 P69       0.485000
     31 H7          -4.0620    -0.9580     1.0870 ha         1 P69       0.116000
     32 H8          -5.1060    -2.6100    -0.4580 ha         1 P69       0.113000
     33 H9          -3.6710    -3.9000    -2.0400 ha         1 P69       0.120000
     34 H10         -1.2160    -3.5330    -2.0820 ha         1 P69       0.133000
     35 H11          2.2080    -0.2340     2.4730 ha         1 P69       0.121000
     36 H12          4.6430     0.1340     2.6010 ha         1 P69       0.115000
     37 H13          6.0270     0.1430     0.5280 ha         1 P69       0.114000
     38 H14          4.9460    -0.2500    -1.6830 ha         1 P69       0.115000
     39 H15          2.5010    -0.5890    -1.8330 ha         1 P69       0.121000
@<TRIPOS>BOND
     1     1     2 1   
     2     2     3 ar  
     3     2     7 ar  
     4     3     4 ar  
     5     3    25 1   
     6     4     5 ar  
     7     4    26 1   
     8     5     6 ar  
     9     5    27 1   
    10     6     7 ar  
    11     6    28 1   
    12     7     8 1   
    13     8     9 1   
    14     8    18 1   
    15     8    29 1   
    16     9    10 1   
    17     9    30 1   
    18    10    11 ar  
    19    10    15 ar  
    20    11    12 ar  
    21    11    31 1   
    22    12    13 ar  
    23    12    32 1   
    24    13    14 ar  
    25    13    33 1   
    26    14    15 ar  
    27    14    34 1   
    28    15    16 1   
    29    16    17 2   
    30    16    18 1   
    31    18    19 1   
    32    19    20 ar  
    33    19    24 ar  
    34    20    21 ar  
    35    20    35 1   
    36    21    22 ar  
    37    21    36 1   
    38    22    23 ar  
    39    22    37 1   
    40    23    24 ar  
    41    23    38 1   
    42    24    39 1   
@<TRIPOS>SUBSTRUCTURE
     1 P69         1 TEMP              0 ****  ****    0 ROOT
