@<TRIPOS>MOLECULE
P6A
   28    30     1     0     0
SMALL
bcc


@<TRIPOS>ATOM
      1 C1           4.1150    -1.0560     0.2130 c3         1 P6A      -0.138400
      2 C10          1.3820     3.6480     0.0100 ca         1 P6A      -0.122000
      3 C11          2.2060     3.0000    -0.9010 ca         1 P6A      -0.129000
      4 C12          2.2540     1.6130    -0.9310 ca         1 P6A      -0.109500
      5 C13         -0.9070    -1.3660    -0.2860 cc         1 P6A       0.186700
      6 C14         -1.9810    -2.1430     0.0110 cd         1 P6A      -0.209300
      7 C15         -3.1350    -1.3980    -0.3610 cd         1 P6A      -0.258300
      8 C16         -2.6570    -0.2310    -0.8520 cc         1 P6A       0.324700
      9 C2           2.6800    -1.3790     0.0560 cd         1 P6A       0.303000
     10 C3           1.5650    -0.6070    -0.0600 cc         1 P6A      -0.281600
     11 C4           0.5180    -1.5720    -0.1530 cc         1 P6A       0.323300
     12 C7           1.4870     0.8580    -0.0450 ca         1 P6A      -0.006000
     13 C8           0.6650     1.5170     0.8690 ca         1 P6A      -0.109500
     14 C9           0.6120     2.9020     0.8940 ca         1 P6A      -0.129000
     15 N5           0.9870    -2.7890    -0.1030 nd         1 P6A      -0.350300
     16 O17         -1.3220    -0.1920    -0.8190 os         1 P6A      -0.296800
     17 O6           2.3300    -2.6670     0.0370 os         1 P6A      -0.107100
     18 CL          -3.4380     1.1340    -1.4750 cl         1 P6A      -0.098000
     19 H13          4.5620    -1.6450     1.0140 hc         1 P6A       0.065700
     20 H12          4.6690    -1.2620    -0.7030 hc         1 P6A       0.065700
     21 H11          4.2380    -0.0020     0.4520 hc         1 P6A       0.065700
     22 H101         1.3410     4.7290     0.0320 ha         1 P6A       0.131000
     23 H111         2.8070     3.5740    -1.5940 ha         1 P6A       0.132000
     24 H121         2.8840     1.1130    -1.6570 ha         1 P6A       0.133000
     25 H141        -1.9570    -3.1240     0.4560 ha         1 P6A       0.175000
     26 H151        -4.1680    -1.6870    -0.2690 ha         1 P6A       0.174000
     27 H81          0.0770     0.9450     1.5750 ha         1 P6A       0.133000
     28 H91         -0.0280     3.4020     1.6100 ha         1 P6A       0.132000
@<TRIPOS>BOND
     1     1     9 1   
     2     1    19 1   
     3     1    20 1   
     4     1    21 1   
     5     2     3 ar  
     6     2    14 ar  
     7     2    22 1   
     8     3     4 ar  
     9     3    23 1   
    10     4    12 ar  
    11     4    24 1   
    12     5     6 2   
    13     5    11 1   
    14     5    16 1   
    15     6     7 1   
    16     6    25 1   
    17     7     8 2   
    18     7    26 1   
    19     8    16 1   
    20     8    18 1   
    21     9    10 2   
    22     9    17 1   
    23    10    11 1   
    24    10    12 1   
    25    11    15 2   
    26    12    13 ar  
    27    13    14 ar  
    28    13    27 1   
    29    14    28 1   
    30    15    17 1   
@<TRIPOS>SUBSTRUCTURE
     1 P6A         1 TEMP              0 ****  ****    0 ROOT
