@<TRIPOS>MOLECULE
P6A
   28    30     1     0     0
SMALL
No Charge or Current Charge


@<TRIPOS>ATOM
      1 C1           4.0750    -0.9350     0.1840 c3         1 P6A      -0.138400
      2 C10          1.5290     3.6570    -0.0430 ca         1 P6A      -0.104000
      3 C11          2.4520     2.9670    -0.8440 ca         1 P6A      -0.111000
      4 C12          2.4370     1.5620    -0.8870 ca         1 P6A      -0.091500
      5 C13         -0.9520    -1.3120    -0.2070 cc         1 P6A       0.077000
      6 C14         -1.9790    -2.2160    -0.0800 cd         1 P6A      -0.126000
      7 C15         -3.1750    -1.5170    -0.3560 cd         1 P6A      -0.175000
      8 C16         -2.8060    -0.2350    -0.6480 cc         1 P6A       0.215000
      9 C2           2.6390    -1.3590     0.0090 cd         1 P6A       0.193300
     10 C3           1.4900    -0.6440    -0.1740 cc         1 P6A      -0.151000
     11 C4           0.4540    -1.6140    -0.0540 cc         1 P6A       0.258000
     12 C7           1.4930     0.8270    -0.1380 ca         1 P6A      -0.006000
     13 C8           0.5790     1.5330     0.6720 ca         1 P6A      -0.091500
     14 C9           0.5940     2.9380     0.7180 ca         1 P6A      -0.111000
     15 N5           0.9160    -2.8400     0.1480 nd         1 P6A      -0.350300
     16 O17         -1.4440    -0.0790    -0.5800 os         1 P6A      -0.208000
     17 O6           2.3410    -2.6840     0.1750 os         1 P6A      -0.062700
     18 Cl          -3.7600     1.1480    -1.0800 cl         1 P6A      -0.098000
     19 H13          4.6510    -1.7050     0.7100 hc         1 P6A       0.065700
     20 H12          4.5550    -0.7660    -0.7870 hc         1 P6A       0.065700
     21 H11          4.1480    -0.0110     0.7700 hc         1 P6A       0.065700
     22 H101         1.5410     4.7440    -0.0080 ha         1 P6A       0.113000
     23 H111         3.1790     3.5210    -1.4350 ha         1 P6A       0.114000
     24 H121         3.1460     1.0480    -1.5310 ha         1 P6A       0.115000
     25 H141        -1.8860    -3.2660     0.1840 ha         1 P6A       0.157000
     26 H151        -4.1860    -1.9100    -0.3450 ha         1 P6A       0.156000
     27 H81         -0.1290     0.9940     1.2960 ha         1 P6A       0.115000
     28 H91         -0.1160     3.4680     1.3500 ha         1 P6A       0.114000
@<TRIPOS>BOND
     1     1     9 1   
     2     1    19 1   
     3     1    20 1   
     4     1    21 1   
     5     2     3 ar  
     6     2    14 ar  
     7     2    22 1   
     8     3     4 ar  
     9     3    23 1   
    10     4    12 ar  
    11     4    24 1   
    12     5     6 2   
    13     5    11 1   
    14     5    16 1   
    15     6     7 1   
    16     6    25 1   
    17     7     8 2   
    18     7    26 1   
    19     8    16 1   
    20     8    18 1   
    21     9    10 2   
    22     9    17 1   
    23    10    11 1   
    24    10    12 1   
    25    11    15 2   
    26    12    13 ar  
    27    13    14 ar  
    28    13    27 1   
    29    14    28 1   
    30    15    17 1   
@<TRIPOS>SUBSTRUCTURE
     1 P6A         1 TEMP              0 ****  ****    0 ROOT
