@<TRIPOS>MOLECULE
P6B
   33    35     1     0     0
SMALL
abcg2


@<TRIPOS>ATOM
      1 C1           3.9040    -0.1700    -1.3970 c5         1 P6B      -0.130400
      2 N1           2.5450     0.1200     0.5400 n3         1 P6B      -0.716600
      3 O1          -0.3050     2.1200     1.5680 os         1 P6B      -0.097700
      4 C2           2.5420     0.3440    -0.9070 c5         1 P6B       0.174800
      5 N2          -0.3210     0.2250     0.5030 nc         1 P6B      -0.693000
      6 O2           4.0170    -2.2510    -0.1080 oh         1 P6B      -0.637000
      7 C3           1.8800     1.1190     1.3200 c3         1 P6B       0.151500
      8 N3          -1.6140     1.8780     1.2560 nd         1 P6B      -0.380300
      9 C4           0.4080     1.1050     1.0970 cd         1 P6B       0.481300
     10 C5          -1.5790     0.7440     0.6220 cc         1 P6B       0.613500
     11 C6          -2.7700     0.0900     0.0820 ca         1 P6B      -0.146500
     12 C7          -4.0370     0.6470     0.2650 ca         1 P6B      -0.067000
     13 C8          -5.1540     0.0170    -0.2550 ca         1 P6B      -0.123500
     14 C9          -5.0210    -1.1730    -0.9620 ca         1 P6B      -0.089000
     15 C10         -3.7630    -1.7290    -1.1470 ca         1 P6B      -0.123500
     16 C11         -2.6400    -1.1020    -0.6280 ca         1 P6B      -0.067000
     17 C12          3.9160    -0.1300     0.9570 c5         1 P6B       0.174800
     18 C13          4.4880    -0.9230    -0.2000 c5         1 P6B       0.166300
     19 H1           3.8320    -0.7940    -2.2890 hc         1 P6B       0.051200
     20 H1A          4.5570     0.6680    -1.6450 hc         1 P6B       0.051200
     21 H2           2.4230     1.4070    -1.1540 h1         1 P6B       0.049200
     22 H2A          1.7070    -0.1850    -1.3700 h1         1 P6B       0.049200
     23 HO2          4.3170    -2.7260    -0.8890 ho         1 P6B       0.439000
     24 H3           2.0530     0.9220     2.3840 h1         1 P6B       0.060700
     25 H3A          2.2490     2.1420     1.1350 h1         1 P6B       0.060700
     26 H7          -4.1500     1.5710     0.8160 ha         1 P6B       0.133500
     27 H8          -6.1330     0.4540    -0.1080 ha         1 P6B       0.116500
     28 H9          -5.8970    -1.6630    -1.3670 ha         1 P6B       0.114000
     29 H10         -3.6530    -2.6540    -1.6990 ha         1 P6B       0.116500
     30 H11         -1.6610    -1.5380    -0.7740 ha         1 P6B       0.133500
     31 H12          4.5020     0.7940     1.0800 h1         1 P6B       0.047200
     32 H12A         3.9480    -0.6710     1.9060 h1         1 P6B       0.047200
     33 H13          5.5840    -0.8910    -0.2010 h1         1 P6B       0.040700
@<TRIPOS>BOND
     1     1     4 1   
     2     1    18 1   
     3     1    19 1   
     4     1    20 1   
     5     2     4 1   
     6     2     7 1   
     7     2    17 1   
     8     3     8 1   
     9     3     9 1   
    10     4    21 1   
    11     4    22 1   
    12     5     9 2   
    13     5    10 1   
    14     6    18 1   
    15     6    23 1   
    16     7     9 1   
    17     7    24 1   
    18     7    25 1   
    19     8    10 2   
    20    10    11 1   
    21    11    12 ar  
    22    11    16 ar  
    23    12    13 ar  
    24    12    26 1   
    25    13    14 ar  
    26    13    27 1   
    27    14    15 ar  
    28    14    28 1   
    29    15    16 ar  
    30    15    29 1   
    31    16    30 1   
    32    17    18 1   
    33    17    31 1   
    34    17    32 1   
    35    18    33 1   
@<TRIPOS>SUBSTRUCTURE
     1 P6B         1 TEMP              0 ****  ****    0 ROOT
