@<TRIPOS>MOLECULE
P6B
   33    35     1     0     0
SMALL
No Charge or Current Charge


@<TRIPOS>ATOM
      1 C1           4.0950     0.1150    -1.4270 c5         1 P6B      -0.130400
      2 N1           2.7000    -0.1000     0.3910 n3         1 P6B      -0.716600
      3 O1          -0.0190     1.8640     0.4360 os         1 P6B      -0.097700
      4 C2           3.0340     0.9100    -0.6340 c5         1 P6B       0.174800
      5 N2          -0.7260    -0.2370     0.7820 nc         1 P6B      -0.693000
      6 O2           5.5770    -1.6960    -0.6340 oh         1 P6B      -0.637000
      7 C3           1.6720     0.2880     1.4070 c3         1 P6B       0.151500
      8 N3          -1.3670     1.8190     0.0170 nd         1 P6B      -0.380300
      9 C4           0.2830     0.6070     0.8670 cd         1 P6B       0.481300
     10 C5          -1.7000     0.5580     0.2520 cc         1 P6B       0.613500
     11 C6          -3.0420     0.0120    -0.0270 ca         1 P6B      -0.146500
     12 C7          -4.0570     0.8370    -0.5720 ca         1 P6B      -0.067000
     13 C8          -5.3370     0.3210    -0.8400 ca         1 P6B      -0.123500
     14 C9          -5.6270    -1.0250    -0.5680 ca         1 P6B      -0.089000
     15 C10         -4.6340    -1.8560    -0.0280 ca         1 P6B      -0.123500
     16 C11         -3.3520    -1.3440     0.2410 ca         1 P6B      -0.067000
     17 C12          4.0240    -0.5050     0.9420 c5         1 P6B       0.174800
     18 C13          5.0030    -0.4320    -0.2870 c5         1 P6B       0.166300
     19 H1           3.6250    -0.6930    -2.0000 hc         1 P6B       0.051200
     20 H1A          4.6440     0.7450    -2.1350 hc         1 P6B       0.051200
     21 H2           3.4500     1.8280    -0.1920 h1         1 P6B       0.049200
     22 H2A          2.1730     1.1820    -1.2600 h1         1 P6B       0.049200
     23 HO2          6.0790    -1.5580    -1.4670 ho         1 P6B       0.439000
     24 H3           1.5570    -0.5250     2.1360 h1         1 P6B       0.060700
     25 H3A          2.0170     1.1650     1.9700 h1         1 P6B       0.060700
     26 H7          -3.8600     1.8850    -0.7930 ha         1 P6B       0.133500
     27 H8          -6.1050     0.9670    -1.2590 ha         1 P6B       0.116500
     28 H9          -6.6180    -1.4220    -0.7760 ha         1 P6B       0.114000
     29 H10         -4.8560    -2.8990     0.1830 ha         1 P6B       0.116500
     30 H11         -2.6020    -2.0120     0.6600 ha         1 P6B       0.133500
     31 H12          4.3570     0.1900     1.7260 h1         1 P6B       0.047200
     32 H12A         3.9860    -1.5100     1.3840 h1         1 P6B       0.047200
     33 H13          5.8000     0.2910    -0.0640 h1         1 P6B       0.040700
@<TRIPOS>BOND
     1     1     4 1   
     2     1    18 1   
     3     1    19 1   
     4     1    20 1   
     5     2     4 1   
     6     2     7 1   
     7     2    17 1   
     8     3     8 1   
     9     3     9 1   
    10     4    21 1   
    11     4    22 1   
    12     5     9 2   
    13     5    10 1   
    14     6    18 1   
    15     6    23 1   
    16     7     9 1   
    17     7    24 1   
    18     7    25 1   
    19     8    10 2   
    20    10    11 1   
    21    11    12 ar  
    22    11    16 ar  
    23    12    13 ar  
    24    12    26 1   
    25    13    14 ar  
    26    13    27 1   
    27    14    15 ar  
    28    14    28 1   
    29    15    16 ar  
    30    15    29 1   
    31    16    30 1   
    32    17    18 1   
    33    17    31 1   
    34    17    32 1   
    35    18    33 1   
@<TRIPOS>SUBSTRUCTURE
     1 P6B         1 TEMP              0 ****  ****    0 ROOT
