@<TRIPOS>MOLECULE
P6C
   27    28     1     0     0
SMALL
abcg2


@<TRIPOS>ATOM
      1 N17         -1.8440    -0.2090    -3.7940 nv         1 P6C      -1.094900
      2 C16         -1.2930    -0.1530    -2.5770 ca         1 P6C       0.383900
      3 N15         -2.0850    -0.0130    -1.5310 nb         1 P6C      -0.245000
      4 C14         -1.4820     0.0350    -0.3380 ca         1 P6C       0.055000
      5 C9          -0.0820    -0.0570    -0.1980 ca         1 P6C       0.071000
      6 N10          0.5200    -0.0120     0.9970 nb         1 P6C      -0.587000
      7 C8           0.6730    -0.2000    -1.4050 ca         1 P6C       0.215300
      8 N7           0.0670    -0.2470    -2.5540 nb         1 P6C      -0.268000
      9 C5           2.1750    -0.2420    -1.3710 c3         1 P6C      -0.122000
     10 C6           2.7570    -1.1500    -2.4460 c3         1 P6C      -0.076600
     11 C4           2.7010     1.1910    -1.5080 c3         1 P6C      -0.076600
     12 N13         -2.2590     0.1770     0.7570 nb         1 P6C      -0.151000
     13 C12         -1.6450     0.2250     1.9100 ca         1 P6C       0.098900
     14 C11         -0.2370     0.1290     2.0560 ca         1 P6C       0.231500
     15 C1           0.4040     0.1850     3.4400 c          1 P6C       0.618500
     16 O2           1.6360     0.0530     3.4880 o          1 P6C      -0.694000
     17 O3          -0.3880     0.3580     4.3860 o          1 P6C      -0.694000
     18 H171        -2.8410    -0.1520    -3.9070 hn         1 P6C       0.494500
     19 H172        -1.2690    -0.3200    -4.6090 hn         1 P6C       0.494500
     20 H5           2.4740    -0.6130    -0.3890 hc         1 P6C       0.100700
     21 H61          2.4130    -2.1780    -2.3320 hc         1 P6C       0.032367
     22 H62          2.4860    -0.8110    -3.4450 hc         1 P6C       0.032367
     23 H63          3.8450    -1.1530    -2.3740 hc         1 P6C       0.032367
     24 H41          2.2970     1.8460    -0.7360 hc         1 P6C       0.032367
     25 H42          3.7880     1.2020    -1.4180 hc         1 P6C       0.032367
     26 H43          2.4380     1.6100    -2.4810 hc         1 P6C       0.032367
     27 H12         -2.2620     0.3410     2.7920 h4         1 P6C       0.048100
@<TRIPOS>BOND
     1     1     2 1   
     2     1    18 1   
     3     1    19 1   
     4     2     3 ar  
     5     2     8 ar  
     6     3     4 ar  
     7     4     5 ar  
     8     4    12 ar  
     9     5     6 ar  
    10     5     7 ar  
    11     6    14 ar  
    12     7     8 ar  
    13     7     9 1   
    14     9    10 1   
    15     9    11 1   
    16     9    20 1   
    17    10    21 1   
    18    10    22 1   
    19    10    23 1   
    20    11    24 1   
    21    11    25 1   
    22    11    26 1   
    23    12    13 ar  
    24    13    14 ar  
    25    13    27 1   
    26    14    15 1   
    27    15    16 1   
    28    15    17 1   
@<TRIPOS>SUBSTRUCTURE
     1 P6C         1 TEMP              0 ****  ****    0 ROOT
