@<TRIPOS>MOLECULE
P6C
   27    28     1     0     0
SMALL
No Charge or Current Charge


@<TRIPOS>ATOM
      1 N17         -1.8480     0.0240    -3.8200 nv         1 P6C      -1.094900
      2 C16         -1.2550     0.0150    -2.6030 ca         1 P6C       0.383900
      3 N15         -2.0730     0.0450    -1.5450 nb         1 P6C      -0.245000
      4 C14         -1.5160     0.0380    -0.3150 ca         1 P6C       0.055000
      5 C9          -0.0880    -0.0030    -0.1820 ca         1 P6C       0.071000
      6 N10          0.5000    -0.0060     1.0450 nb         1 P6C      -0.587000
      7 C8           0.6750    -0.0380    -1.3890 ca         1 P6C       0.215300
      8 N7           0.0770    -0.0240    -2.6000 nb         1 P6C      -0.268000
      9 C5           2.2150    -0.0730    -1.4090 c3         1 P6C      -0.122000
     10 C6           2.7650    -1.2660    -2.2300 c3         1 P6C      -0.076600
     11 C4           2.8040     1.2710    -1.8980 c3         1 P6C      -0.076600
     12 N13         -2.2960     0.0710     0.7880 nb         1 P6C      -0.151000
     13 C12         -1.7030     0.0660     1.9980 ca         1 P6C       0.098900
     14 C11         -0.3030     0.0290     2.1530 ca         1 P6C       0.231500
     15 C1           0.3050     0.0260     3.5720 c          1 P6C       0.618500
     16 O2           1.5250    -0.0080     3.7060 o          1 P6C      -0.694000
     17 O3          -0.4510     0.0590     4.5370 o          1 P6C      -0.694000
     18 H171        -2.8460    -0.1700    -3.8740 hn         1 P6C       0.494500
     19 H172        -1.2900    -0.2190    -4.6360 hn         1 P6C       0.494500
     20 H5           2.5870    -0.2180    -0.3880 hc         1 P6C       0.100700
     21 H61          2.3470    -2.2100    -1.8620 hc         1 P6C       0.032367
     22 H62          2.5140    -1.1690    -3.2930 hc         1 P6C       0.032367
     23 H63          3.8570    -1.3230    -2.1430 hc         1 P6C       0.032367
     24 H41          2.4370     2.0990    -1.2790 hc         1 P6C       0.032367
     25 H42          3.8990     1.2610    -1.8380 hc         1 P6C       0.032367
     26 H43          2.5210     1.4710    -2.9390 hc         1 P6C       0.032367
     27 H12         -2.3720     0.0940     2.8560 h4         1 P6C       0.048100
@<TRIPOS>BOND
     1     1     2 1   
     2     1    18 1   
     3     1    19 1   
     4     2     3 ar  
     5     2     8 ar  
     6     3     4 ar  
     7     4     5 ar  
     8     4    12 ar  
     9     5     6 ar  
    10     5     7 ar  
    11     6    14 ar  
    12     7     8 ar  
    13     7     9 1   
    14     9    10 1   
    15     9    11 1   
    16     9    20 1   
    17    10    21 1   
    18    10    22 1   
    19    10    23 1   
    20    11    24 1   
    21    11    25 1   
    22    11    26 1   
    23    12    13 ar  
    24    13    14 ar  
    25    13    27 1   
    26    14    15 1   
    27    15    16 1   
    28    15    17 1   
@<TRIPOS>SUBSTRUCTURE
     1 P6C         1 TEMP              0 ****  ****    0 ROOT
