@<TRIPOS>MOLECULE
P6E
   45    47     1     0     0
SMALL
No Charge or Current Charge


@<TRIPOS>ATOM
      1 C11        112.9400   104.9400   146.5540 ca         1 P6E      -0.037000
      2 C12        113.1800   106.2940   146.8720 ca         1 P6E      -0.075000
      3 C13        112.9240   107.2980   145.9240 ca         1 P6E      -0.115000
      4 C14        112.4280   106.9720   144.6480 ca         1 P6E       0.162100
      5 C15        112.1630   105.6260   144.3240 ca         1 P6E      -0.242500
      6 C20        112.4310   104.6190   145.2810 ca         1 P6E      -0.073000
      7 C24        115.3750   109.8000   143.2700 ca         1 P6E       0.155000
      8 C26        114.8920   111.0810   142.9550 ca         1 P6E      -0.127000
      9 C27        113.5060   111.3150   142.9000 ca         1 P6E      -0.075000
     10 C28        112.6090   110.2650   143.1660 ca         1 P6E      -0.123000
     11 C02        113.6990   103.8200   148.7450 c          1 P6E       0.602100
     12 C03        113.7770   102.4090   149.3420 c3         1 P6E      -0.105100
     13 C04        115.1980   101.8600   149.2470 ca         1 P6E      -0.077300
     14 C05        115.6060   101.1380   148.1080 ca         1 P6E      -0.091500
     15 C06        116.9170   100.6380   148.0180 ca         1 P6E      -0.108000
     16 C07        117.8280   100.8580   149.0650 ca         1 P6E      -0.101000
     17 C08        117.4270   101.5790   150.2020 ca         1 P6E      -0.108000
     18 C09        116.1160   102.0790   150.2930 ca         1 P6E      -0.091500
     19 C22        113.0930   108.9880   143.4930 ca         1 P6E       0.141100
     20 C23        114.4810   108.7510   143.5350 ca         1 P6E      -0.155000
     21 N10        113.1770   103.8650   147.4570 ns         1 P6E      -0.155000
     22 N18        112.8030   105.3010   141.7230 n8         1 P6E      -1.096100
     23 O01        114.0840   104.8020   149.3690 o          1 P6E      -0.562100
     24 O17        111.2030   103.7360   142.6560 o          1 P6E      -0.541000
     25 O19        110.5960   106.1690   142.1790 o          1 P6E      -0.541000
     26 O21        112.1910   107.9770   143.7370 os         1 P6E      -0.259200
     27 S16        111.5130   105.1630   142.7070 sy         1 P6E       1.208600
     28 H1         113.5630   106.5920   147.8430 ha         1 P6E       0.159000
     29 H2         113.1100   108.3380   146.1830 ha         1 P6E       0.137000
     30 H3         112.2420   103.5750   145.0360 ha         1 P6E       0.126000
     31 H4         115.5900   111.8890   142.7500 ha         1 P6E       0.132000
     32 H5         113.1300   112.3050   142.6520 ha         1 P6E       0.122000
     33 H6         111.5370   110.4410   143.1220 ha         1 P6E       0.137000
     34 H7         113.4710   102.4550   150.3940 hc         1 P6E       0.065200
     35 H8         113.1000   101.7380   148.7990 hc         1 P6E       0.065200
     36 H9         114.9100   100.9620   147.2910 ha         1 P6E       0.110000
     37 H10        117.2270   100.0810   147.1370 ha         1 P6E       0.115000
     38 H11        118.8420   100.4710   148.9950 ha         1 P6E       0.114000
     39 H12        118.1310   101.7510   151.0130 ha         1 P6E       0.115000
     40 H13        115.8150   102.6390   151.1760 ha         1 P6E       0.110000
     41 H14        114.8660   107.7620   143.7640 ha         1 P6E       0.141000
     42 H15        112.9200   102.9590   147.0870 hn         1 P6E       0.150000
     43 H16        112.6830   104.4520   141.1760 hn         1 P6E       0.503000
     44 H17        112.4380   106.0120   141.0940 hn         1 P6E       0.503000
     45 Cl         117.1080   109.5070   143.3280 cl         1 P6E      -0.213000
@<TRIPOS>BOND
     1     1     2 ar  
     2     1     6 ar  
     3     1    21 1   
     4     2     3 ar  
     5     2    28 1   
     6     3     4 ar  
     7     3    29 1   
     8     4     5 ar  
     9     4    26 1   
    10     5     6 ar  
    11     5    27 1   
    12     6    30 1   
    13     7     8 ar  
    14     7    20 ar  
    15     7    45 1   
    16     8     9 ar  
    17     8    31 1   
    18     9    10 ar  
    19     9    32 1   
    20    10    19 ar  
    21    10    33 1   
    22    11    12 1   
    23    11    21 1   
    24    11    23 2   
    25    12    13 1   
    26    12    34 1   
    27    12    35 1   
    28    13    14 ar  
    29    13    18 ar  
    30    14    15 ar  
    31    14    36 1   
    32    15    16 ar  
    33    15    37 1   
    34    16    17 ar  
    35    16    38 1   
    36    17    18 ar  
    37    17    39 1   
    38    18    40 1   
    39    19    20 ar  
    40    19    26 1   
    41    20    41 1   
    42    21    42 1   
    43    22    27 1   
    44    22    43 1   
    45    22    44 1   
    46    24    27 2   
    47    25    27 2   
@<TRIPOS>SUBSTRUCTURE
     1 P6E         1 TEMP              0 ****  ****    0 ROOT
