@<TRIPOS>MOLECULE
P6E
   45    47     1     0     0
SMALL
abcg2


@<TRIPOS>ATOM
      1 C11        113.2900   104.8910   146.0810 ca         1 P6E      -0.037000
      2 C12        113.6560   106.1280   146.6210 ca         1 P6E      -0.075000
      3 C13        113.2380   107.3020   146.0080 ca         1 P6E      -0.115000
      4 C14        112.4680   107.2670   144.8590 ca         1 P6E       0.162100
      5 C15        112.0960   106.0360   144.3180 ca         1 P6E      -0.242500
      6 C20        112.4990   104.8580   144.9280 ca         1 P6E      -0.073000
      7 C24        115.0250   109.8130   142.7090 ca         1 P6E       0.155000
      8 C26        114.5890   111.0870   142.3790 ca         1 P6E      -0.127000
      9 C27        113.2810   111.4390   142.7010 ca         1 P6E      -0.075000
     10 C28        112.4370   110.5450   143.3430 ca         1 P6E      -0.123000
     11 C02        114.4430   103.4000   147.7210 c          1 P6E       0.602100
     12 C03        114.5650   101.9080   148.0300 c3         1 P6E      -0.105100
     13 C04        115.6840   101.5850   148.9790 ca         1 P6E      -0.077300
     14 C05        116.9880   101.4310   148.5070 ca         1 P6E      -0.091500
     15 C06        118.0310   101.1510   149.3820 ca         1 P6E      -0.108000
     16 C07        117.7820   101.0180   150.7460 ca         1 P6E      -0.101000
     17 C08        116.4850   101.1670   151.2250 ca         1 P6E      -0.108000
     18 C09        115.4440   101.4490   150.3450 ca         1 P6E      -0.091500
     19 C22        112.9090   109.2760   143.6630 ca         1 P6E       0.141100
     20 C23        114.2060   108.8900   143.3450 ca         1 P6E      -0.155000
     21 N10        113.6690   103.6580   146.6260 ns         1 P6E      -0.155000
     22 N18        110.9440   104.4550   142.4670 n8         1 P6E      -1.096100
     23 O01        114.9660   104.2690   148.4040 o          1 P6E      -0.562100
     24 O17        109.7790   106.5160   143.2150 o          1 P6E      -0.541000
     25 O19        111.8320   106.6900   141.8080 o          1 P6E      -0.541000
     26 O21        112.0110   108.4320   144.2770 os         1 P6E      -0.259200
     27 S16        111.0860   106.0220   142.8490 sy         1 P6E       1.208600
     28 H1         114.2580   106.1680   147.5120 ha         1 P6E       0.159000
     29 H2         113.5180   108.2600   146.4250 ha         1 P6E       0.137000
     30 H3         112.1980   103.9110   144.5030 ha         1 P6E       0.126000
     31 H4         115.2490   111.7840   141.8820 ha         1 P6E       0.132000
     32 H5         112.9210   112.4290   142.4520 ha         1 P6E       0.122000
     33 H6         111.4220   110.8140   143.6000 ha         1 P6E       0.137000
     34 H7         113.6050   101.5940   148.4510 hc         1 P6E       0.065200
     35 H8         114.6880   101.3650   147.0900 hc         1 P6E       0.065200
     36 H9         117.1860   101.5310   147.4460 ha         1 P6E       0.110000
     37 H10        119.0380   101.0320   149.0000 ha         1 P6E       0.115000
     38 H11        118.5930   100.7960   151.4280 ha         1 P6E       0.114000
     39 H12        116.2820   101.0620   152.2840 ha         1 P6E       0.115000
     40 H13        114.4340   101.5620   150.7220 ha         1 P6E       0.110000
     41 H14        114.5700   107.9020   143.5780 ha         1 P6E       0.141000
     42 H15        113.3080   102.8480   146.1420 hn         1 P6E       0.150000
     43 H16        110.0210   104.0580   142.5780 hn         1 P6E       0.503000
     44 H17        111.4800   104.1380   141.6720 hn         1 P6E       0.503000
     45 CL         116.6630   109.3360   142.3060 cl         1 P6E      -0.213000
@<TRIPOS>BOND
     1     1     2 ar  
     2     1     6 ar  
     3     1    21 1   
     4     2     3 ar  
     5     2    28 1   
     6     3     4 ar  
     7     3    29 1   
     8     4     5 ar  
     9     4    26 1   
    10     5     6 ar  
    11     5    27 1   
    12     6    30 1   
    13     7     8 ar  
    14     7    20 ar  
    15     7    45 1   
    16     8     9 ar  
    17     8    31 1   
    18     9    10 ar  
    19     9    32 1   
    20    10    19 ar  
    21    10    33 1   
    22    11    12 1   
    23    11    21 1   
    24    11    23 2   
    25    12    13 1   
    26    12    34 1   
    27    12    35 1   
    28    13    14 ar  
    29    13    18 ar  
    30    14    15 ar  
    31    14    36 1   
    32    15    16 ar  
    33    15    37 1   
    34    16    17 ar  
    35    16    38 1   
    36    17    18 ar  
    37    17    39 1   
    38    18    40 1   
    39    19    20 ar  
    40    19    26 1   
    41    20    41 1   
    42    21    42 1   
    43    22    27 1   
    44    22    43 1   
    45    22    44 1   
    46    24    27 2   
    47    25    27 2   
@<TRIPOS>SUBSTRUCTURE
     1 P6E         1 TEMP              0 ****  ****    0 ROOT
