@<TRIPOS>MOLECULE
P6G
   45    44     1     0     0
SMALL
No Charge or Current Charge


@<TRIPOS>ATOM
      1 O1           8.3220     0.0280    -0.6340 oh         1 P6G      -0.709000
      2 C2           7.5040    -1.1180    -0.3260 c3         1 P6G       0.163600
      3 C3           6.5430    -0.8350     0.8600 c3         1 P6G       0.160600
      4 O4           5.5540     0.1310     0.4520 os         1 P6G      -0.433000
      5 C5           4.6040     0.4820     1.4790 c3         1 P6G       0.162100
      6 C6           3.5970     1.5090     0.9070 c3         1 P6G       0.161600
      7 O7           2.7180     0.8420    -0.0200 os         1 P6G      -0.433500
      8 C8           1.7330     1.6980    -0.6300 c3         1 P6G       0.162100
      9 C9           0.8540     0.8570    -1.5860 c3         1 P6G       0.161600
     10 O10         -0.0090     0.0050    -0.8060 os         1 P6G      -0.433000
     11 C11         -0.8760    -0.8420    -1.5850 c3         1 P6G       0.161600
     12 C12         -1.7490    -1.6890    -0.6290 c3         1 P6G       0.162100
     13 O13         -2.7310    -0.8350    -0.0080 os         1 P6G      -0.433500
     14 C14         -3.6040    -1.5080     0.9210 c3         1 P6G       0.161600
     15 C15         -4.6080    -0.4840     1.5040 c3         1 P6G       0.162100
     16 O16         -5.5630    -0.1270     0.4850 os         1 P6G      -0.433000
     17 C17         -6.5500     0.8370     0.9040 c3         1 P6G       0.160600
     18 C18         -7.5180     1.1260    -0.2750 c3         1 P6G       0.163600
     19 O19         -8.3390    -0.0190    -0.5840 oh         1 P6G      -0.709000
     20 H1           8.8560    -0.2070    -1.4280 ho         1 P6G       0.499000
     21 H21          6.9110    -1.4140    -1.2020 h1         1 P6G       0.024700
     22 H22          8.1420    -1.9710    -0.0590 h1         1 P6G       0.024700
     23 H31          6.0570    -1.7750     1.1540 h1         1 P6G       0.025450
     24 H32          7.1190    -0.4680     1.7200 h1         1 P6G       0.025450
     25 H51          4.0620    -0.4040     1.8350 h1         1 P6G       0.027200
     26 H52          5.1210     0.9330     2.3350 h1         1 P6G       0.027200
     27 H61          3.0190     1.9360     1.7370 h1         1 P6G       0.027450
     28 H62          4.1430     2.3250     0.4160 h1         1 P6G       0.027450
     29 H81          1.0980     2.1740     0.1290 h1         1 P6G       0.027200
     30 H82          2.2260     2.4910    -1.2090 h1         1 P6G       0.027200
     31 H91          0.2550     1.5360    -2.2070 h1         1 P6G       0.027200
     32 H92          1.4970     0.2640    -2.2510 h1         1 P6G       0.027200
     33 H111        -1.5230    -0.2460    -2.2430 h1         1 P6G       0.027200
     34 H112        -0.2810    -1.5180    -2.2130 h1         1 P6G       0.027200
     35 H121        -2.2450    -2.4780    -1.2080 h1         1 P6G       0.027200
     36 H122        -1.1100    -2.1680     0.1240 h1         1 P6G       0.027200
     37 H141        -4.1530    -2.3210     0.4290 h1         1 P6G       0.027450
     38 H142        -3.0210    -1.9390     1.7450 h1         1 P6G       0.027450
     39 H151        -5.1200    -0.9390     2.3620 h1         1 P6G       0.027200
     40 H152        -4.0640     0.4010     1.8620 h1         1 P6G       0.027200
     41 H171        -7.1210     0.4650     1.7650 h1         1 P6G       0.025450
     42 H172        -6.0620     1.7750     1.2000 h1         1 P6G       0.025450
     43 H181        -8.1550     1.9770     0.0010 h1         1 P6G       0.024700
     44 H182        -6.9310     1.4260    -1.1530 h1         1 P6G       0.024700
     45 H19         -8.8770     0.2200    -1.3740 ho         1 P6G       0.499000
@<TRIPOS>BOND
     1     1     2 1   
     2     1    20 1   
     3     2     3 1   
     4     2    21 1   
     5     2    22 1   
     6     3     4 1   
     7     3    23 1   
     8     3    24 1   
     9     4     5 1   
    10     5     6 1   
    11     5    25 1   
    12     5    26 1   
    13     6     7 1   
    14     6    27 1   
    15     6    28 1   
    16     7     8 1   
    17     8     9 1   
    18     8    29 1   
    19     8    30 1   
    20     9    10 1   
    21     9    31 1   
    22     9    32 1   
    23    10    11 1   
    24    11    12 1   
    25    11    33 1   
    26    11    34 1   
    27    12    13 1   
    28    12    35 1   
    29    12    36 1   
    30    13    14 1   
    31    14    15 1   
    32    14    37 1   
    33    14    38 1   
    34    15    16 1   
    35    15    39 1   
    36    15    40 1   
    37    16    17 1   
    38    17    18 1   
    39    17    41 1   
    40    17    42 1   
    41    18    19 1   
    42    18    43 1   
    43    18    44 1   
    44    19    45 1   
@<TRIPOS>SUBSTRUCTURE
     1 P6G         1 TEMP              0 ****  ****    0 ROOT
