@<TRIPOS>MOLECULE
P6G
   45    44     1     0     0
SMALL
abcg2


@<TRIPOS>ATOM
      1 O1           7.5980    -0.5710    -0.3510 oh         1 P6G      -0.709000
      2 C2           6.7580    -1.3900     0.4290 c3         1 P6G       0.163600
      3 C3           5.9100    -0.5330     1.3330 c3         1 P6G       0.160600
      4 O4           5.0380     0.2590     0.5660 os         1 P6G      -0.433000
      5 C5           4.1650     1.0230     1.3570 c3         1 P6G       0.162100
      6 C6           3.2890     1.8770     0.4770 c3         1 P6G       0.161600
      7 O7           2.4720     1.0590    -0.3210 os         1 P6G      -0.433500
      8 C8           1.5780     1.7980    -1.1130 c3         1 P6G       0.162100
      9 C9           0.7920     0.8700    -2.0030 c3         1 P6G       0.161600
     10 O10         -0.0050     0.0160    -1.2230 os         1 P6G      -0.433000
     11 C11         -0.8070    -0.8320    -2.0050 c3         1 P6G       0.161600
     12 C12         -1.5870    -1.7670    -1.1180 c3         1 P6G       0.162100
     13 O13         -2.4740    -1.0340    -0.3120 os         1 P6G      -0.433500
     14 C14         -3.2820    -1.8580     0.4900 c3         1 P6G       0.161600
     15 C15         -4.1570    -1.0120     1.3770 c3         1 P6G       0.162100
     16 O16         -5.0440    -0.2560     0.5930 os         1 P6G      -0.433000
     17 C17         -5.9210     0.5230     1.3660 c3         1 P6G       0.160600
     18 C18         -6.7940     1.3620     0.4680 c3         1 P6G       0.163600
     19 O19         -7.6350     0.5240    -0.2920 oh         1 P6G      -0.709000
     20 H1           8.1230    -1.1390    -0.9210 ho         1 P6G       0.499000
     21 H21          6.1040    -2.0140    -0.1940 h1         1 P6G       0.024700
     22 H22          7.3300    -2.0720     1.0700 h1         1 P6G       0.024700
     23 H31          5.3500    -1.2000     2.0040 h1         1 P6G       0.025450
     24 H32          6.5510     0.0930     1.9710 h1         1 P6G       0.025450
     25 H51          3.5410     0.3770     1.9920 h1         1 P6G       0.027200
     26 H52          4.7190     1.6900     2.0320 h1         1 P6G       0.027200
     27 H61          2.6870     2.5260     1.1270 h1         1 P6G       0.027450
     28 H62          3.9100     2.5380    -0.1450 h1         1 P6G       0.027450
     29 H81          0.8940     2.3900    -0.4880 h1         1 P6G       0.027200
     30 H82          2.1130     2.5090    -1.7590 h1         1 P6G       0.027200
     31 H91          0.1750     1.4870    -2.6720 h1         1 P6G       0.027200
     32 H92          1.4760     0.2940    -2.6430 h1         1 P6G       0.027200
     33 H111        -1.4950    -0.2510    -2.6360 h1         1 P6G       0.027200
     34 H112        -0.1940    -1.4440    -2.6830 h1         1 P6G       0.027200
     35 H121        -2.1280    -2.4720    -1.7650 h1         1 P6G       0.027200
     36 H122        -0.9000    -2.3650    -0.5030 h1         1 P6G       0.027200
     37 H141        -3.9030    -2.5220    -0.1300 h1         1 P6G       0.027450
     38 H142        -2.6710    -2.5050     1.1350 h1         1 P6G       0.027450
     39 H151        -4.7000    -1.6830     2.0570 h1         1 P6G       0.027200
     40 H152        -3.5340    -0.3590     2.0050 h1         1 P6G       0.027200
     41 H171        -6.5460    -0.1120     2.0110 h1         1 P6G       0.025450
     42 H172        -5.3660     1.2000     2.0300 h1         1 P6G       0.025450
     43 H181        -7.3650     2.0420     1.1120 h1         1 P6G       0.024700
     44 H182        -6.1580     1.9890    -0.1700 h1         1 P6G       0.024700
     45 H19         -8.1800     1.0810    -0.8550 ho         1 P6G       0.499000
@<TRIPOS>BOND
     1     1     2 1   
     2     1    20 1   
     3     2     3 1   
     4     2    21 1   
     5     2    22 1   
     6     3     4 1   
     7     3    23 1   
     8     3    24 1   
     9     4     5 1   
    10     5     6 1   
    11     5    25 1   
    12     5    26 1   
    13     6     7 1   
    14     6    27 1   
    15     6    28 1   
    16     7     8 1   
    17     8     9 1   
    18     8    29 1   
    19     8    30 1   
    20     9    10 1   
    21     9    31 1   
    22     9    32 1   
    23    10    11 1   
    24    11    12 1   
    25    11    33 1   
    26    11    34 1   
    27    12    13 1   
    28    12    35 1   
    29    12    36 1   
    30    13    14 1   
    31    14    15 1   
    32    14    37 1   
    33    14    38 1   
    34    15    16 1   
    35    15    39 1   
    36    15    40 1   
    37    16    17 1   
    38    17    18 1   
    39    17    41 1   
    40    17    42 1   
    41    18    19 1   
    42    18    43 1   
    43    18    44 1   
    44    19    45 1   
@<TRIPOS>SUBSTRUCTURE
     1 P6G         1 TEMP              0 ****  ****    0 ROOT
