@<TRIPOS>MOLECULE
P6H
   22    22     1     0     0
SMALL
No Charge or Current Charge


@<TRIPOS>ATOM
      1 C01        -20.7980   -19.4010     0.0870 c3         1 P6H      -0.335100
      2 C04        -19.1110   -20.6310     2.0980 ca         1 P6H      -0.241500
      3 C05        -18.9050   -21.4110     3.2760 ca         1 P6H       0.016700
      4 C06        -19.9330   -21.4490     4.4260 c3         1 P6H       0.183900
      5 C07        -17.7200   -22.1800     3.3810 ca         1 P6H      -0.100000
      6 C08        -16.7450   -22.1560     2.3730 ca         1 P6H      -0.061000
      7 C09        -16.9350   -21.3590     1.2380 ca         1 P6H      -0.124000
      8 C10        -18.1060   -20.6020     1.1000 ca         1 P6H      -0.043000
      9 O03        -21.7810   -20.4700     2.2770 o          1 P6H      -0.524500
     10 O11        -20.4110   -18.3310     2.4500 o          1 P6H      -0.524500
     11 S02        -20.6320   -19.6560     1.8570 sy         1 P6H       1.043500
     12 H1         -21.7680   -18.9260    -0.0930 h1         1 P6H       0.104367
     13 H2         -19.9900   -18.7440    -0.2520 h1         1 P6H       0.104367
     14 H3         -20.7500   -20.3760    -0.4090 h1         1 P6H       0.104367
     15 H4         -20.3990   -20.4610     4.5330 h1         1 P6H       0.054200
     16 H5         -20.7270   -22.1610     4.1590 h1         1 P6H       0.054200
     17 H7         -17.5440   -22.8040     4.2530 ha         1 P6H       0.139000
     18 H8         -15.8400   -22.7500     2.4770 ha         1 P6H       0.119000
     19 H9         -16.1750   -21.3320     0.4610 ha         1 P6H       0.119000
     20 H10        -18.2170   -19.9960     0.2050 ha         1 P6H       0.114000
     21 O1         -19.3470   -21.8160     5.6880 oh         1 P6H      -0.658000
     22 H6         -20.0710   -21.8150     6.3530 ho         1 P6H       0.455000
@<TRIPOS>BOND
     1     1    11 1   
     2     1    12 1   
     3     1    13 1   
     4     1    14 1   
     5     2     3 ar  
     6     2     8 ar  
     7     2    11 1   
     8     3     4 1   
     9     3     5 ar  
    10     4    15 1   
    11     4    16 1   
    12     4    21 1   
    13     5     6 ar  
    14     5    17 1   
    15     6     7 ar  
    16     6    18 1   
    17     7     8 ar  
    18     7    19 1   
    19     8    20 1   
    20     9    11 2   
    21    10    11 2   
    22    21    22 1   
@<TRIPOS>SUBSTRUCTURE
     1 P6H         1 TEMP              0 ****  ****    0 ROOT
