@<TRIPOS>MOLECULE
P6H
   22    22     1     0     0
SMALL
bcc


@<TRIPOS>ATOM
      1 C01        -20.7060   -19.3310     0.1270 c3         1 P6H      -0.224300
      2 C04        -19.1320   -20.7130     2.0670 ca         1 P6H      -0.241500
      3 C05        -18.9070   -21.3590     3.2920 ca         1 P6H       0.016700
      4 C06        -19.9190   -21.3580     4.4140 c3         1 P6H       0.160700
      5 C07        -17.7060   -22.0440     3.4380 ca         1 P6H      -0.118000
      6 C08        -16.7650   -22.0850     2.4180 ca         1 P6H      -0.079000
      7 C09        -17.0060   -21.4400     1.2170 ca         1 P6H      -0.142000
      8 C10        -18.1950   -20.7480     1.0440 ca         1 P6H      -0.061000
      9 O03        -21.7700   -20.6560     2.1230 o          1 P6H      -0.595300
     10 O11        -20.5200   -18.5460     2.6290 o          1 P6H      -0.595300
     11 S02        -20.6340   -19.7770     1.8470 sy         1 P6H       1.074300
     12 H1         -21.6630   -18.8250     0.0110 h1         1 P6H       0.104367
     13 H2         -19.9010   -18.6480    -0.1310 h1         1 P6H       0.104367
     14 H3         -20.6840   -20.2210    -0.4970 h1         1 P6H       0.104367
     15 H4         -20.3060   -20.3430     4.5620 h1         1 P6H       0.054200
     16 H5         -20.7690   -21.9790     4.1120 h1         1 P6H       0.054200
     17 H7         -17.4970   -22.5560     4.3650 ha         1 P6H       0.157000
     18 H8         -15.8410   -22.6280     2.5680 ha         1 P6H       0.137000
     19 H9         -16.2790   -21.4670     0.4170 ha         1 P6H       0.137000
     20 H10        -18.3700   -20.2460     0.1030 ha         1 P6H       0.132000
     21 O1         -19.3200   -21.8420     5.5860 oh         1 P6H      -0.595800
     22 H6         -20.0170   -22.0170     6.2240 ho         1 P6H       0.416000
@<TRIPOS>BOND
     1     1    11 1   
     2     1    12 1   
     3     1    13 1   
     4     1    14 1   
     5     2     3 ar  
     6     2     8 ar  
     7     2    11 1   
     8     3     4 1   
     9     3     5 ar  
    10     4    15 1   
    11     4    16 1   
    12     4    21 1   
    13     5     6 ar  
    14     5    17 1   
    15     6     7 ar  
    16     6    18 1   
    17     7     8 ar  
    18     7    19 1   
    19     8    20 1   
    20     9    11 2   
    21    10    11 2   
    22    21    22 1   
@<TRIPOS>SUBSTRUCTURE
     1 P6H         1 TEMP              0 ****  ****    0 ROOT
