@<TRIPOS>MOLECULE
P6I
   48    51     1     0     0
SMALL
No Charge or Current Charge


@<TRIPOS>ATOM
      1 C2          19.8710    22.1660   -54.1180 c3         1 P6I       0.024900
      2 C11         10.4810    22.2380   -53.6680 ca         1 P6I       0.339900
      3 C12         15.7330    15.0380   -53.2910 cc         1 P6I      -0.234000
      4 C15         11.5730    21.8880   -54.4920 ca         1 P6I      -0.103300
      5 C16         15.1230    19.5710   -54.9590 ca         1 P6I      -0.069000
      6 C18         14.5270    15.1470   -52.6540 cd         1 P6I       0.089000
      7 S01         15.7960    16.0960   -54.6950 ss         1 P6I       0.227000
      8 C19         14.1550    16.6650   -54.3870 cc         1 P6I      -0.235300
      9 C09         13.6340    16.0640   -53.2670 cd         1 P6I      -0.103000
     10 C23         13.5080    17.6950   -55.2730 c3         1 P6I       0.175300
     11 N02         13.7840    19.0630   -54.7740 n          1 P6I      -0.248400
     12 C06         15.6790    19.6360   -56.2530 ca         1 P6I      -0.097500
     13 C08         16.9260    20.2480   -56.4660 ca         1 P6I      -0.104000
     14 C17         17.6230    20.8420   -55.4010 ca         1 P6I      -0.084000
     15 C07         17.0440    20.8370   -54.1170 ca         1 P6I      -0.104000
     16 C05         15.7960    20.2250   -53.9060 ca         1 P6I      -0.097500
     17 C20         12.7750    19.7100   -54.0100 c          1 P6I       0.606100
     18 O01         11.8420    19.0780   -53.5220 o          1 P6I      -0.583100
     19 C22         12.8080    21.2440   -53.8500 c3         1 P6I      -0.101100
     20 N01          9.3400    22.8000   -54.1280 nb         1 P6I      -0.660000
     21 C10          9.2470    23.0300   -55.4560 ca         1 P6I       0.364900
     22 C14         11.4650    22.1280   -55.8850 ca         1 P6I       0.005000
     23 C04         12.4920    21.8070   -56.8020 ca         1 P6I      -0.107000
     24 C02         12.3250    22.0650   -58.1730 ca         1 P6I      -0.090000
     25 C13         10.2730    22.7120   -56.3670 ca         1 P6I      -0.098000
     26 C03         10.1100    22.9700   -57.7420 ca         1 P6I      -0.078000
     27 C01         11.1370    22.6460   -58.6430 ca         1 P6I      -0.114000
     28 S1          19.2110    21.6070   -55.7510 ss         1 P6I      -0.165000
     29 H1          20.8600    22.6170   -54.2600 h1         1 P6I       0.068367
     30 H2          19.1980    22.9140   -53.6800 h1         1 P6I       0.068367
     31 H3          19.9620    21.3090   -53.4400 h1         1 P6I       0.068367
     32 H4          10.5200    22.0620   -52.5940 h4         1 P6I       0.018100
     33 H5          16.5860    14.4220   -53.0410 h4         1 P6I       0.164000
     34 H6          12.6400    16.2710   -52.8840 ha         1 P6I       0.159000
     35 H7          12.4270    17.5140   -55.3230 h1         1 P6I       0.076700
     36 H8          13.8910    17.5880   -56.2950 h1         1 P6I       0.076700
     37 H9          15.1470    19.2200   -57.1050 ha         1 P6I       0.125500
     38 H10         17.3470    20.2710   -57.4690 ha         1 P6I       0.124500
     39 H11         17.5390    21.3060   -53.2730 ha         1 P6I       0.124500
     40 H12         15.3660    20.2370   -52.9070 ha         1 P6I       0.125500
     41 H13         12.8190    21.4600   -52.7750 hc         1 P6I       0.072700
     42 H14         13.7150    21.6840   -54.2720 hc         1 P6I       0.072700
     43 H15          8.3170    23.4810   -55.8000 h4         1 P6I       0.019100
     44 H16         13.4230    21.3600   -56.4720 ha         1 P6I       0.116000
     45 H17         13.1200    21.8150   -58.8720 ha         1 P6I       0.113000
     46 H18          9.1910    23.4200   -58.1120 ha         1 P6I       0.117000
     47 H19         11.0110    22.8450   -59.7050 ha         1 P6I       0.116000
     48 Cl01        14.0800    14.2730   -51.2270 cl         1 P6I      -0.181000
@<TRIPOS>BOND
     1     1    28 1   
     2     1    29 1   
     3     1    30 1   
     4     1    31 1   
     5     2     4 ar  
     6     2    20 ar  
     7     2    32 1   
     8     3     6 2   
     9     3     7 1   
    10     3    33 1   
    11     4    19 1   
    12     4    22 ar  
    13     5    11 1   
    14     5    12 ar  
    15     5    16 ar  
    16     6     9 1   
    17     6    48 1   
    18     7     8 1   
    19     8     9 2   
    20     8    10 1   
    21     9    34 1   
    22    10    11 1   
    23    10    35 1   
    24    10    36 1   
    25    11    17 1   
    26    12    13 ar  
    27    12    37 1   
    28    13    14 ar  
    29    13    38 1   
    30    14    15 ar  
    31    14    28 1   
    32    15    16 ar  
    33    15    39 1   
    34    16    40 1   
    35    17    18 2   
    36    17    19 1   
    37    19    41 1   
    38    19    42 1   
    39    20    21 ar  
    40    21    25 ar  
    41    21    43 1   
    42    22    23 ar  
    43    22    25 ar  
    44    23    24 ar  
    45    23    44 1   
    46    24    27 ar  
    47    24    45 1   
    48    25    26 ar  
    49    26    27 ar  
    50    26    46 1   
    51    27    47 1   
@<TRIPOS>SUBSTRUCTURE
     1 P6I         1 TEMP              0 ****  ****    0 ROOT
