@<TRIPOS>MOLECULE
P6I
   48    51     1     0     0
SMALL
abcg2


@<TRIPOS>ATOM
      1 C2          19.8230    21.7130   -53.5900 c3         1 P6I       0.024900
      2 C11         10.7850    22.3080   -53.7320 ca         1 P6I       0.339900
      3 C12         15.9880    15.3650   -52.9120 cc         1 P6I      -0.234000
      4 C15         11.6080    21.8460   -54.7280 ca         1 P6I      -0.103300
      5 C16         15.1640    19.5770   -55.1460 ca         1 P6I      -0.069000
      6 C18         14.8480    15.7520   -52.2680 cd         1 P6I       0.089000
      7 S01         15.9870    15.9600   -54.5220 ss         1 P6I       0.227000
      8 C19         14.4440    16.7120   -54.3280 cc         1 P6I      -0.235300
      9 C09         13.9580    16.5170   -53.0650 cd         1 P6I      -0.103000
     10 C23         13.8310    17.5210   -55.4330 c3         1 P6I       0.175300
     11 N02         13.8720    18.9620   -55.1420 n          1 P6I      -0.248400
     12 C06         15.7800    19.8820   -56.3580 ca         1 P6I      -0.097500
     13 C08         17.0380    20.4610   -56.3730 ca         1 P6I      -0.104000
     14 C17         17.7040    20.7420   -55.1730 ca         1 P6I      -0.084000
     15 C07         17.0910    20.4180   -53.9610 ca         1 P6I      -0.104000
     16 C05         15.8310    19.8290   -53.9540 ca         1 P6I      -0.097500
     17 C20         12.7380    19.5930   -54.7320 c          1 P6I       0.606100
     18 O01         11.6670    19.0040   -54.6170 o          1 P6I      -0.583100
     19 C22         12.8580    21.0790   -54.3950 c3         1 P6I      -0.101100
     20 N01          9.6410    23.0120   -53.9400 nb         1 P6I      -0.660000
     21 C10          9.3030    23.2740   -55.1810 ca         1 P6I       0.364900
     22 C14         11.2500    22.1190   -56.0770 ca         1 P6I       0.005000
     23 C04         12.0100    21.7030   -57.1970 ca         1 P6I      -0.107000
     24 C02         11.5980    22.0130   -58.4700 ca         1 P6I      -0.090000
     25 C13         10.0580    22.8620   -56.3050 ca         1 P6I      -0.098000
     26 C03          9.6580    23.1690   -57.6260 ca         1 P6I      -0.078000
     27 C01         10.4150    22.7510   -58.6910 ca         1 P6I      -0.114000
     28 S1          19.2920    21.5050   -55.3070 ss         1 P6I      -0.165000
     29 H1          20.8050    22.1780   -53.6490 h1         1 P6I       0.068367
     30 H2          19.1450    22.3670   -53.0440 h1         1 P6I       0.068367
     31 H3          19.9100    20.7500   -53.0900 h1         1 P6I       0.068367
     32 H4          11.0360    22.1130   -52.6950 h4         1 P6I       0.018100
     33 H5          16.8010    14.7730   -52.5340 h4         1 P6I       0.164000
     34 H6          13.0170    16.9120   -52.7100 ha         1 P6I       0.159000
     35 H7          12.7870    17.2490   -55.5670 h1         1 P6I       0.076700
     36 H8          14.3540    17.3440   -56.3730 h1         1 P6I       0.076700
     37 H9          15.2670    19.6740   -57.2880 ha         1 P6I       0.125500
     38 H10         17.5040    20.7060   -57.3190 ha         1 P6I       0.124500
     39 H11         17.5830    20.6120   -53.0200 ha         1 P6I       0.124500
     40 H12         15.3570    19.5790   -53.0140 ha         1 P6I       0.125500
     41 H13         13.0530    21.1420   -53.3220 hc         1 P6I       0.072700
     42 H14         13.7220    21.5160   -54.8930 hc         1 P6I       0.072700
     43 H15          8.3880    23.8370   -55.3420 h4         1 P6I       0.019100
     44 H16         12.9240    21.1440   -57.0570 ha         1 P6I       0.116000
     45 H17         12.1860    21.6860   -59.3180 ha         1 P6I       0.113000
     46 H18          8.7480    23.7370   -57.7790 ha         1 P6I       0.117000
     47 H19         10.1090    22.9840   -59.7030 ha         1 P6I       0.116000
     48 CL01        14.5000    15.3340   -50.6140 cl         1 P6I      -0.181000
@<TRIPOS>BOND
     1     1    28 1   
     2     1    29 1   
     3     1    30 1   
     4     1    31 1   
     5     2     4 ar  
     6     2    20 ar  
     7     2    32 1   
     8     3     6 2   
     9     3     7 1   
    10     3    33 1   
    11     4    19 1   
    12     4    22 ar  
    13     5    11 1   
    14     5    12 ar  
    15     5    16 ar  
    16     6     9 1   
    17     6    48 1   
    18     7     8 1   
    19     8     9 2   
    20     8    10 1   
    21     9    34 1   
    22    10    11 1   
    23    10    35 1   
    24    10    36 1   
    25    11    17 1   
    26    12    13 ar  
    27    12    37 1   
    28    13    14 ar  
    29    13    38 1   
    30    14    15 ar  
    31    14    28 1   
    32    15    16 ar  
    33    15    39 1   
    34    16    40 1   
    35    17    18 2   
    36    17    19 1   
    37    19    41 1   
    38    19    42 1   
    39    20    21 ar  
    40    21    25 ar  
    41    21    43 1   
    42    22    23 ar  
    43    22    25 ar  
    44    23    24 ar  
    45    23    44 1   
    46    24    27 ar  
    47    24    45 1   
    48    25    26 ar  
    49    26    27 ar  
    50    26    46 1   
    51    27    47 1   
@<TRIPOS>SUBSTRUCTURE
     1 P6I         1 TEMP              0 ****  ****    0 ROOT
