@<TRIPOS>MOLECULE
P6J
   54    57     1     0     0
SMALL
abcg2


@<TRIPOS>ATOM
      1 C13         64.5540    49.3320    10.1460 c3         1 P6J       0.134900
      2 O1          64.5970    47.9310    10.3960 os         1 P6J      -0.449000
      3 C12         65.8020    47.4780    10.9860 c3         1 P6J       0.199600
      4 C9          67.0180    47.5410    10.0850 cx         1 P6J      -0.052000
      5 C8          67.8510    48.7980    10.0340 cx         1 P6J      -0.119700
      6 C14         68.3810    47.5770    10.7200 cx         1 P6J      -0.067400
      7 S1          66.8460    46.6530     8.5370 ss         1 P6J      -0.312200
      8 C10         66.7940    48.0600     7.4290 c2         1 P6J       0.692100
      9 N2          66.0910    47.7930     6.2910 nv         1 P6J      -1.023200
     10 N1          67.4000    49.1650     7.6000 n2         1 P6J      -0.696900
     11 C1          68.3520    49.3710     8.6940 c6         1 P6J       0.253500
     12 C11         68.4710    50.9000     8.8460 c3         1 P6J      -0.070100
     13 C2          69.7310    48.8110     8.3100 ca         1 P6J      -0.062300
     14 C3          69.9610    48.1860     7.0910 ca         1 P6J      -0.139000
     15 C7          70.8230    48.9440     9.1640 ca         1 P6J       0.100000
     16 F1          70.7030    49.5330    10.3750 f          1 P6J      -0.168000
     17 C6          72.0710    48.4670     8.8030 ca         1 P6J       0.155000
     18 F2          73.0950    48.6230     9.6690 f          1 P6J      -0.163000
     19 C5          72.3000    47.8400     7.5960 ca         1 P6J      -0.154000
     20 C4          71.2200    47.6980     6.7260 ca         1 P6J      -0.003000
     21 N3          71.3220    47.0810     5.4730 ns         1 P6J      -0.127000
     22 C15         72.4130    46.5580     4.8630 c          1 P6J       0.528600
     23 O2          73.5470    46.5330     5.3350 o          1 P6J      -0.586100
     24 C16         72.1210    45.9930     3.5080 ca         1 P6J       0.178500
     25 C19         73.1380    45.4580     2.7360 ca         1 P6J       0.399900
     26 N5          72.9050    44.9590     1.5170 nb         1 P6J      -0.720000
     27 N4          70.8560    46.0200     3.0550 nb         1 P6J      -0.618000
     28 C17         70.6120    45.5270     1.8610 ca         1 P6J       0.282900
     29 C18         71.6600    44.9910     1.0840 ca         1 P6J       0.555300
     30 O3          71.3320    44.5080    -0.1220 os         1 P6J      -0.451300
     31 C20         72.3910    43.9950    -0.9620 c3         1 P6J       0.260700
     32 C21         73.1610    45.0640    -1.5830 c1         1 P6J      -0.187100
     33 C22         73.7880    45.9430    -2.1090 c1         1 P6J      -0.190000
     34 H1          63.5340    49.5660     9.8450 h1         1 P6J       0.034033
     35 H2          64.8050    49.8980    11.0500 h1         1 P6J       0.034033
     36 H3          65.2390    49.6230     9.3460 h1         1 P6J       0.034033
     37 H4          65.6150    46.4420    11.2770 h1         1 P6J       0.055200
     38 H5          66.0220    48.0560    11.8930 h1         1 P6J       0.055200
     39 H6          67.4930    49.5730    10.7000 hc         1 P6J       0.092700
     40 H7          68.4270    47.5890    11.8010 hc         1 P6J       0.089700
     41 H8          69.1620    47.0080    10.2360 hc         1 P6J       0.089700
     42 H9          65.9850    48.5610     5.6440 hn         1 P6J       0.481000
     43 H10         65.3100    47.1580     6.3540 hn         1 P6J       0.481000
     44 H11         69.1570    51.1700     9.6450 hc         1 P6J       0.048700
     45 H12         68.8190    51.3360     7.9090 hc         1 P6J       0.048700
     46 H13         67.4850    51.3070     9.0760 hc         1 P6J       0.048700
     47 H14         69.1420    48.0740     6.3970 ha         1 P6J       0.137000
     48 H15         73.2850    47.4800     7.3490 ha         1 P6J       0.171000
     49 H16         70.4680    47.0110     4.9330 hn         1 P6J       0.185000
     50 H17         74.1560    45.4330     3.1000 h4         1 P6J       0.057100
     51 H18         69.5970    45.5400     1.4830 h4         1 P6J       0.050100
     52 H19         71.8730    43.4080    -1.7190 h1         1 P6J       0.083200
     53 H20         73.0380    43.3390    -0.3820 h1         1 P6J       0.083200
     54 H21         74.3460    46.7220    -2.5750 ha         1 P6J       0.259000
@<TRIPOS>BOND
     1     1     2 1   
     2     1    34 1   
     3     1    35 1   
     4     1    36 1   
     5     2     3 1   
     6     3     4 1   
     7     3    37 1   
     8     3    38 1   
     9     4     5 1   
    10     4     6 1   
    11     4     7 1   
    12     5     6 1   
    13     5    11 1   
    14     5    39 1   
    15     6    40 1   
    16     6    41 1   
    17     7     8 1   
    18     8     9 1   
    19     8    10 2   
    20     9    42 1   
    21     9    43 1   
    22    10    11 1   
    23    11    12 1   
    24    11    13 1   
    25    12    44 1   
    26    12    45 1   
    27    12    46 1   
    28    13    14 ar  
    29    13    15 ar  
    30    14    20 ar  
    31    14    47 1   
    32    15    16 1   
    33    15    17 ar  
    34    17    18 1   
    35    17    19 ar  
    36    19    20 ar  
    37    19    48 1   
    38    20    21 1   
    39    21    22 1   
    40    21    49 1   
    41    22    23 2   
    42    22    24 1   
    43    24    25 ar  
    44    24    27 ar  
    45    25    26 ar  
    46    25    50 1   
    47    26    29 ar  
    48    27    28 ar  
    49    28    29 ar  
    50    28    51 1   
    51    29    30 1   
    52    30    31 1   
    53    31    32 1   
    54    31    52 1   
    55    31    53 1   
    56    32    33 3   
    57    33    54 1   
@<TRIPOS>SUBSTRUCTURE
     1 P6J         1 TEMP              0 ****  ****    0 ROOT
