@<TRIPOS>MOLECULE
P6J
   54    57     1     0     0
SMALL
No Charge or Current Charge


@<TRIPOS>ATOM
      1 C13         64.4600    49.4020    10.2130 c3         1 P6J       0.134900
      2 O1          64.5460    47.9770    10.4000 os         1 P6J      -0.449000
      3 C12         65.7320    47.4980    11.0750 c3         1 P6J       0.199600
      4 C9          66.9450    47.5860    10.1380 cx         1 P6J      -0.052000
      5 C8          67.7920    48.8430    10.0610 cx         1 P6J      -0.119700
      6 C14         68.3390    47.5780    10.7010 cx         1 P6J      -0.067400
      7 S1          66.7320    46.7000     8.5510 ss         1 P6J      -0.312200
      8 C10         66.7320    48.0770     7.4430 c2         1 P6J       0.692100
      9 N2          65.9250    47.8570     6.3870 nv         1 P6J      -1.023200
     10 N1          67.3570    49.1730     7.6010 n2         1 P6J      -0.696900
     11 C1          68.3410    49.3790     8.6970 c6         1 P6J       0.253500
     12 C11         68.4350    50.9350     8.7780 c3         1 P6J      -0.070100
     13 C2          69.7620    48.8300     8.3320 ca         1 P6J      -0.062300
     14 C3          70.0160    48.1740     7.0970 ca         1 P6J      -0.139000
     15 C7          70.8530    48.9860     9.2270 ca         1 P6J       0.100000
     16 F1          70.6900    49.5970    10.4250 f          1 P6J      -0.168000
     17 C6          72.1270    48.4920     8.8960 ca         1 P6J       0.155000
     18 F2          73.1580    48.6410     9.7610 f          1 P6J      -0.163000
     19 C5          72.3510    47.8420     7.6760 ca         1 P6J      -0.154000
     20 C4          71.2910    47.6780     6.7630 ca         1 P6J      -0.003000
     21 N3          71.4340    47.0350     5.5010 ns         1 P6J      -0.127000
     22 C15         72.5150    46.4340     4.8640 c          1 P6J       0.528600
     23 O2          73.6380    46.3610     5.3560 o          1 P6J      -0.586100
     24 C16         72.1950    45.8670     3.4940 ca         1 P6J       0.178500
     25 C19         73.2350    45.2300     2.7610 ca         1 P6J       0.399900
     26 N5          73.0460    44.6890     1.5230 nb         1 P6J      -0.720000
     27 N4          70.9210    45.9710     2.9850 nb         1 P6J      -0.618000
     28 C17         70.7390    45.4290     1.7450 ca         1 P6J       0.282900
     29 C18         71.7900    44.8020     1.0110 ca         1 P6J       0.555300
     30 O3          71.5050    44.2600    -0.2280 os         1 P6J      -0.451300
     31 C20         72.5450    43.9300    -1.1720 c3         1 P6J       0.260700
     32 C21         73.0760    45.1700    -1.7640 c1         1 P6J      -0.187100
     33 C22         73.5010    46.2050    -2.2290 c1         1 P6J      -0.190000
     34 H1          63.4890    49.6690     9.7790 h1         1 P6J       0.034033
     35 H2          64.5620    49.9300    11.1700 h1         1 P6J       0.034033
     36 H3          65.2410    49.7620     9.5310 h1         1 P6J       0.034033
     37 H4          65.5960    46.4480    11.3650 h1         1 P6J       0.055200
     38 H5          65.9190    48.0710    11.9940 h1         1 P6J       0.055200
     39 H6          67.5210    49.6410    10.7500 hc         1 P6J       0.092700
     40 H7          68.4560    47.5740    11.7820 hc         1 P6J       0.089700
     41 H8          69.0800    46.9840    10.1720 hc         1 P6J       0.089700
     42 H9          65.6420    48.7240     5.9490 hn         1 P6J       0.481000
     43 H10         65.1710    47.2150     6.5890 hn         1 P6J       0.481000
     44 H11         69.0710    51.2750     9.6010 hc         1 P6J       0.048700
     45 H12         68.8460    51.3560     7.8530 hc         1 P6J       0.048700
     46 H13         67.4470    51.3880     8.9340 hc         1 P6J       0.048700
     47 H14         69.2200    48.0420     6.3700 ha         1 P6J       0.137000
     48 H15         73.3510    47.4790     7.4660 ha         1 P6J       0.171000
     49 H16         70.5810    47.0050     4.9550 hn         1 P6J       0.185000
     50 H17         74.2400    45.1460     3.1710 h4         1 P6J       0.057100
     51 H18         69.7370    45.4970     1.3250 h4         1 P6J       0.050100
     52 H19         72.1350    43.3110    -1.9810 h1         1 P6J       0.083200
     53 H20         73.3570    43.3580    -0.7020 h1         1 P6J       0.083200
     54 H21         73.8800    47.1250    -2.6280 ha         1 P6J       0.259000
@<TRIPOS>BOND
     1     1     2 1   
     2     1    34 1   
     3     1    35 1   
     4     1    36 1   
     5     2     3 1   
     6     3     4 1   
     7     3    37 1   
     8     3    38 1   
     9     4     5 1   
    10     4     6 1   
    11     4     7 1   
    12     5     6 1   
    13     5    11 1   
    14     5    39 1   
    15     6    40 1   
    16     6    41 1   
    17     7     8 1   
    18     8     9 1   
    19     8    10 2   
    20     9    42 1   
    21     9    43 1   
    22    10    11 1   
    23    11    12 1   
    24    11    13 1   
    25    12    44 1   
    26    12    45 1   
    27    12    46 1   
    28    13    14 ar  
    29    13    15 ar  
    30    14    20 ar  
    31    14    47 1   
    32    15    16 1   
    33    15    17 ar  
    34    17    18 1   
    35    17    19 ar  
    36    19    20 ar  
    37    19    48 1   
    38    20    21 1   
    39    21    22 1   
    40    21    49 1   
    41    22    23 2   
    42    22    24 1   
    43    24    25 ar  
    44    24    27 ar  
    45    25    26 ar  
    46    25    50 1   
    47    26    29 ar  
    48    27    28 ar  
    49    28    29 ar  
    50    28    51 1   
    51    29    30 1   
    52    30    31 1   
    53    31    32 1   
    54    31    52 1   
    55    31    53 1   
    56    32    33 3   
    57    33    54 1   
@<TRIPOS>SUBSTRUCTURE
     1 P6J         1 TEMP              0 ****  ****    0 ROOT
