@<TRIPOS>MOLECULE
P6L
  125   124     1     0     0
SMALL
abcg2


@<TRIPOS>ATOM
      1 C1           2.4750    -3.6010    -1.6330 c3         1 P6L       0.188600
      2 C2           3.5550    -2.8040    -0.9200 c3         1 P6L       0.160300
      3 O3           3.8850    -1.6160    -1.6010 oh         1 P6L      -0.644000
      4 O4          -3.0100    -0.2570    -1.9020 os         1 P6L      -0.420100
      5 C5          -2.5850    -0.7490    -3.1780 c3         1 P6L       0.171300
      6 C6          -1.6110     0.2620    -3.7420 c3         1 P6L       0.174600
      7 C7          -2.0630    -2.1710    -3.1010 c3         1 P6L       0.212600
      8 O8          -0.5240     0.4370    -2.8420 os         1 P6L      -0.391100
      9 O9          -1.0010    -2.2680    -2.1840 os         1 P6L      -0.572400
     10 O10          0.0440    -4.1780    -3.5600 o          1 P6L      -0.827500
     11 P11         -0.0660    -3.6130    -2.1760 p5         1 P6L       1.393800
     12 O12          1.3130    -2.8120    -1.7770 os         1 P6L      -0.573400
     13 O13         -0.4690    -4.5020    -1.0380 o          1 P6L      -0.827500
     14 O15         -4.9950    -1.2740    -2.0610 o          1 P6L      -0.508000
     15 C16          0.5430     1.0970    -3.2730 c          1 P6L       0.600100
     16 O17          0.6170     1.5860    -4.3750 o          1 P6L      -0.532000
     17 C18         -4.5480     0.1810    -0.1920 c3         1 P6L      -0.139400
     18 C19         -5.8880    -0.1970     0.4190 c3         1 P6L      -0.068400
     19 C20         -6.2460     0.6970     1.6000 c3         1 P6L      -0.073400
     20 C21         -7.5870     0.3130     2.2270 c3         1 P6L      -0.047200
     21 C22         -7.9790     1.2290     3.3440 c2         1 P6L      -0.205200
     22 C23         -9.0590     2.0070     3.4120 c2         1 P6L      -0.227200
     23 C24        -10.1580     2.1240     2.4030 c3         1 P6L      -0.041200
     24 C25        -11.4850     1.5640     2.9190 c3         1 P6L      -0.072400
     25 C26        -12.6030     1.6560     1.8870 c3         1 P6L      -0.075400
     26 C27          1.6240     1.1340    -2.2300 c3         1 P6L      -0.148400
     27 C28          2.7870     2.0450    -2.5910 c3         1 P6L      -0.059400
     28 C29          3.8600     2.0600    -1.5100 c3         1 P6L      -0.082400
     29 C30          5.0180     2.9920    -1.8420 c3         1 P6L      -0.071400
     30 C31          6.1250     2.9650    -0.7970 c3         1 P6L      -0.073400
     31 C32          7.2510     3.9570    -1.0930 c3         1 P6L      -0.043200
     32 C33          8.3410     3.9080    -0.0700 c2         1 P6L      -0.206200
     33 C34          9.6220     3.6590    -0.3260 c2         1 P6L      -0.231200
     34 C35         10.7110     3.5750     0.6970 c3         1 P6L      -0.036200
     35 C36         11.4630     2.2460     0.6340 c3         1 P6L      -0.073400
     36 C37        -13.9340     1.1130     2.3890 c3         1 P6L      -0.073400
     37 C38         12.5850     2.1440     1.6590 c3         1 P6L      -0.074400
     38 C39         13.3750     0.8460     1.5510 c3         1 P6L      -0.075400
     39 C40         14.4890     0.7300     2.5840 c3         1 P6L      -0.073400
     40 C41         15.2970    -0.5550     2.4550 c3         1 P6L      -0.075400
     41 C42         16.4080    -0.6730     3.4910 c3         1 P6L      -0.075400
     42 C43         17.2280    -1.9510     3.3580 c3         1 P6L      -0.075400
     43 C44         18.3300    -2.0540     4.4030 c3         1 P6L      -0.088100
     44 C45        -15.0360     1.1660     1.3370 c3         1 P6L      -0.074400
     45 C46        -16.3730     0.6300     1.8330 c3         1 P6L      -0.074400
     46 C47        -17.4660     0.6670     0.7720 c3         1 P6L      -0.076400
     47 C48        -18.8040     0.1260     1.2600 c3         1 P6L      -0.074400
     48 C49        -19.8840     0.1610     0.1880 c3         1 P6L      -0.088100
     49 C50          4.7690    -3.6900    -0.6930 c3         1 P6L       0.118600
     50 O51          5.7260    -2.9770     0.0510 oh         1 P6L      -0.650000
     51 H11          2.2700    -4.5090    -1.0540 h1         1 P6L       0.023200
     52 H12          2.8470    -3.9250    -2.6150 h1         1 P6L       0.023200
     53 H2           3.1670    -2.4890     0.0540 h1         1 P6L       0.091700
     54 HO3          4.1850    -1.8390    -2.4890 ho         1 P6L       0.430000
     55 H5          -3.4300    -0.7690    -3.8740 h1         1 P6L       0.047700
     56 H61         -2.1190     1.2160    -3.9040 h1         1 P6L       0.044200
     57 H62         -1.2660    -0.0990    -4.7140 h1         1 P6L       0.044200
     58 H71         -2.8860    -2.8370    -2.8220 h1         1 P6L       0.036700
     59 H72         -1.7550    -2.4540    -4.1130 h1         1 P6L       0.036700
     60 H181        -3.7340     0.0140     0.5190 hc         1 P6L       0.071200
     61 H182        -4.5230     1.2530    -0.4150 hc         1 P6L       0.071200
     62 H191        -6.6740    -0.1200    -0.3360 hc         1 P6L       0.053200
     63 H192        -5.8680    -1.2420     0.7400 hc         1 P6L       0.053200
     64 H201        -5.4590     0.6510     2.3590 hc         1 P6L       0.038200
     65 H202        -6.2880     1.7380     1.2650 hc         1 P6L       0.038200
     66 H211        -8.3530     0.2880     1.4490 hc         1 P6L       0.047200
     67 H212        -7.5110    -0.7100     2.6130 hc         1 P6L       0.047200
     68 H22         -7.2830     1.2600     4.1790 ha         1 P6L       0.164000
     69 H23         -9.1840     2.6150     4.3050 ha         1 P6L       0.160000
     70 H241       -10.2980     3.1800     2.1480 hc         1 P6L       0.044200
     71 H242        -9.8920     1.6190     1.4730 hc         1 P6L       0.044200
     72 H251       -11.3420     0.5180     3.2090 hc         1 P6L       0.038200
     73 H252       -11.7800     2.0970     3.8300 hc         1 P6L       0.038200
     74 H261       -12.7290     2.7000     1.5810 hc         1 P6L       0.037700
     75 H262       -12.3040     1.1110     0.9850 hc         1 P6L       0.037700
     76 H271         1.9730     0.1070    -2.0740 hc         1 P6L       0.094700
     77 H272         1.1780     1.4370    -1.2780 hc         1 P6L       0.094700
     78 H281         2.4220     3.0620    -2.7560 hc         1 P6L       0.040200
     79 H282         3.2310     1.7200    -3.5350 hc         1 P6L       0.040200
     80 H291         4.2350     1.0430    -1.3590 hc         1 P6L       0.050700
     81 H292         3.4160     2.3650    -0.5560 hc         1 P6L       0.050700
     82 H301         4.6400     4.0150    -1.9470 hc         1 P6L       0.031700
     83 H302         5.4360     2.7220    -2.8180 hc         1 P6L       0.031700
     84 H311         6.5420     1.9540    -0.7320 hc         1 P6L       0.043700
     85 H312         5.7040     3.1850     0.1900 hc         1 P6L       0.043700
     86 H321         6.8230     4.9650    -1.1290 hc         1 P6L       0.040700
     87 H322         7.6660     3.7620    -2.0870 hc         1 P6L       0.040700
     88 H33          8.0360     4.0790     0.9620 ha         1 P6L       0.163000
     89 H34          9.9250     3.4840    -1.3570 ha         1 P6L       0.164000
     90 H351        10.2960     3.7240     1.6990 hc         1 P6L       0.039200
     91 H352        11.4300     4.3880     0.5370 hc         1 P6L       0.039200
     92 H361        11.8770     2.1170    -0.3720 hc         1 P6L       0.042200
     93 H362        10.7580     1.4220     0.7800 hc         1 P6L       0.042200
     94 H371       -13.8020     0.0770     2.7210 hc         1 P6L       0.036700
     95 H372       -14.2480     1.6770     3.2740 hc         1 P6L       0.036700
     96 H381        12.1660     2.2340     2.6680 hc         1 P6L       0.034700
     97 H382        13.2660     2.9940     1.5380 hc         1 P6L       0.034700
     98 H391        13.8030     0.7670     0.5460 hc         1 P6L       0.038700
     99 H392        12.6940    -0.0060     1.6570 hc         1 P6L       0.038700
    100 H401        14.0590     0.7900     3.5900 hc         1 P6L       0.035700
    101 H402        15.1600     1.5910     2.4910 hc         1 P6L       0.035700
    102 H411        15.7310    -0.6110     1.4500 hc         1 P6L       0.037700
    103 H412        14.6270    -1.4180     2.5430 hc         1 P6L       0.037700
    104 H421        15.9730    -0.6250     4.4960 hc         1 P6L       0.035700
    105 H422        17.0730     0.1930     3.4090 hc         1 P6L       0.035700
    106 H431        17.6650    -1.9980     2.3560 hc         1 P6L       0.036700
    107 H432        16.5640    -2.8180     3.4380 hc         1 P6L       0.036700
    108 H441        17.9170    -2.0420     5.4130 hc         1 P6L       0.029700
    109 H442        18.9050    -2.9750     4.2940 hc         1 P6L       0.029700
    110 H443        19.0260    -1.2180     4.3230 hc         1 P6L       0.029700
    111 H451       -15.1640     2.2000     0.9990 hc         1 P6L       0.037700
    112 H452       -14.7210     0.5960     0.4560 hc         1 P6L       0.037700
    113 H461       -16.2440    -0.4010     2.1820 hc         1 P6L       0.036200
    114 H462       -16.6950     1.2070     2.7070 hc         1 P6L       0.036200
    115 H471       -17.5980     1.6970     0.4220 hc         1 P6L       0.037200
    116 H472       -17.1410     0.0920    -0.1030 hc         1 P6L       0.037200
    117 H481       -18.6730    -0.9020     1.6110 hc         1 P6L       0.035700
    118 H482       -19.1310     0.7030     2.1310 hc         1 P6L       0.035700
    119 H491       -20.8260    -0.2500     0.5520 hc         1 P6L       0.030367
    120 H492       -20.0780     1.1820    -0.1470 hc         1 P6L       0.030367
    121 H493       -19.5880    -0.4200    -0.6880 hc         1 P6L       0.030367
    122 H501         4.4460    -4.6000    -0.1700 h1         1 P6L       0.016700
    123 H502         5.1680    -4.0110    -1.6660 h1         1 P6L       0.016700
    124 H51          6.4870    -3.5500     0.1810 ho         1 P6L       0.426000
    125 C14         -4.2370    -0.5450    -1.4720 c          1 P6L       0.601100
@<TRIPOS>BOND
     1     1     2 1   
     2     1    12 1   
     3     1    51 1   
     4     1    52 1   
     5     2     3 1   
     6     2    49 1   
     7     2    53 1   
     8     3    54 1   
     9     4     5 1   
    10     4   125 1   
    11     5     6 1   
    12     5     7 1   
    13     5    55 1   
    14     6     8 1   
    15     6    56 1   
    16     6    57 1   
    17     7     9 1   
    18     7    58 1   
    19     7    59 1   
    20     8    15 1   
    21     9    11 1   
    22    10    11 1   
    23    11    12 1   
    24    11    13 1   
    25    14   125 2   
    26    15    16 2   
    27    15    26 1   
    28    17    18 1   
    29    17    60 1   
    30    17    61 1   
    31    17   125 1   
    32    18    19 1   
    33    18    62 1   
    34    18    63 1   
    35    19    20 1   
    36    19    64 1   
    37    19    65 1   
    38    20    21 1   
    39    20    66 1   
    40    20    67 1   
    41    21    22 2   
    42    21    68 1   
    43    22    23 1   
    44    22    69 1   
    45    23    24 1   
    46    23    70 1   
    47    23    71 1   
    48    24    25 1   
    49    24    72 1   
    50    24    73 1   
    51    25    36 1   
    52    25    74 1   
    53    25    75 1   
    54    26    27 1   
    55    26    76 1   
    56    26    77 1   
    57    27    28 1   
    58    27    78 1   
    59    27    79 1   
    60    28    29 1   
    61    28    80 1   
    62    28    81 1   
    63    29    30 1   
    64    29    82 1   
    65    29    83 1   
    66    30    31 1   
    67    30    84 1   
    68    30    85 1   
    69    31    32 1   
    70    31    86 1   
    71    31    87 1   
    72    32    33 2   
    73    32    88 1   
    74    33    34 1   
    75    33    89 1   
    76    34    35 1   
    77    34    90 1   
    78    34    91 1   
    79    35    37 1   
    80    35    92 1   
    81    35    93 1   
    82    36    44 1   
    83    36    94 1   
    84    36    95 1   
    85    37    38 1   
    86    37    96 1   
    87    37    97 1   
    88    38    39 1   
    89    38    98 1   
    90    38    99 1   
    91    39    40 1   
    92    39   100 1   
    93    39   101 1   
    94    40    41 1   
    95    40   102 1   
    96    40   103 1   
    97    41    42 1   
    98    41   104 1   
    99    41   105 1   
   100    42    43 1   
   101    42   106 1   
   102    42   107 1   
   103    43   108 1   
   104    43   109 1   
   105    43   110 1   
   106    44    45 1   
   107    44   111 1   
   108    44   112 1   
   109    45    46 1   
   110    45   113 1   
   111    45   114 1   
   112    46    47 1   
   113    46   115 1   
   114    46   116 1   
   115    47    48 1   
   116    47   117 1   
   117    47   118 1   
   118    48   119 1   
   119    48   120 1   
   120    48   121 1   
   121    49    50 1   
   122    49   122 1   
   123    49   123 1   
   124    50   124 1   
@<TRIPOS>SUBSTRUCTURE
     1 P6L         1 TEMP              0 ****  ****    0 ROOT
