@<TRIPOS>MOLECULE
P6L
  125   124     1     0     0
SMALL
No Charge or Current Charge


@<TRIPOS>ATOM
      1 C1          -1.0460    -4.8780    -3.2240 c3         1 P6L       0.188600
      2 C2           0.0110    -3.9290    -3.8700 c3         1 P6L       0.160300
      3 O3          -0.2300    -3.7690    -5.2810 oh         1 P6L      -0.644000
      4 O4          -2.7690     0.8490    -4.2910 os         1 P6L      -0.420100
      5 C5          -2.5170    -0.2560    -5.1960 c3         1 P6L       0.171300
      6 C6          -1.0300    -0.2080    -5.6420 c3         1 P6L       0.174600
      7 C7          -2.9740    -1.6080    -4.5610 c3         1 P6L       0.212600
      8 O8          -0.1510    -0.3020    -4.5030 os         1 P6L      -0.391100
      9 O9          -2.2760    -1.8540    -3.3320 os         1 P6L      -0.572400
     10 O10         -4.2620    -2.9600    -2.1500 o          1 P6L      -0.827500
     11 P11         -2.7860    -3.0270    -2.3570 p5         1 P6L       1.393800
     12 O12         -2.3760    -4.3160    -3.2410 os         1 P6L      -0.573400
     13 O13         -2.0520    -3.0150    -1.0570 o          1 P6L      -0.827500
     14 O15         -5.0400     0.7880    -4.6410 o          1 P6L      -0.508000
     15 C16          1.1970    -0.2880    -4.7330 c          1 P6L       0.600100
     16 O17          1.7120    -0.1490    -5.8350 o          1 P6L      -0.532000
     17 C18         -4.1420     2.3510    -3.0130 c3         1 P6L      -0.139400
     18 C19         -4.4590     1.7760    -1.6130 c3         1 P6L      -0.068400
     19 C20         -4.5930     2.8680    -0.5290 c3         1 P6L      -0.073400
     20 C21         -4.9160     2.3000     0.8680 c3         1 P6L      -0.047200
     21 C22         -5.0930     3.3960     1.9020 c2         1 P6L      -0.205200
     22 C23         -6.2550     3.9420     2.3030 c2         1 P6L      -0.227200
     23 C24         -7.6430     3.6090     1.7850 c3         1 P6L      -0.041200
     24 C25         -8.3620     2.5750     2.6770 c3         1 P6L      -0.072400
     25 C26         -9.7600     2.1830     2.1500 c3         1 P6L      -0.075400
     26 C27          1.9970    -0.4110    -3.4360 c3         1 P6L      -0.148400
     27 C28          2.3890     0.9750    -2.8740 c3         1 P6L      -0.059400
     28 C29          3.2910     0.8780    -1.6240 c3         1 P6L      -0.082400
     29 C30          3.7330     2.2570    -1.0860 c3         1 P6L      -0.071400
     30 C31          4.7020     2.1530     0.1130 c3         1 P6L      -0.073400
     31 C32          5.1730     3.5260     0.6360 c3         1 P6L      -0.043200
     32 C33          6.1970     3.3870     1.7440 c2         1 P6L      -0.206200
     33 C34          7.5060     3.6550     1.6200 c2         1 P6L      -0.231200
     34 C35          8.5420     3.5010     2.7140 c3         1 P6L      -0.036200
     35 C36          9.5240     2.3480     2.4190 c3         1 P6L      -0.073400
     36 C37        -10.4770     1.1550     3.0540 c3         1 P6L      -0.073400
     37 C38         10.6340     2.2010     3.4840 c3         1 P6L      -0.074400
     38 C39         11.6060     1.0360     3.1890 c3         1 P6L      -0.075400
     39 C40         12.7530     0.9290     4.2190 c3         1 P6L      -0.073400
     40 C41         13.7220    -0.2400     3.9280 c3         1 P6L      -0.075400
     41 C42         14.8940    -0.3160     4.9320 c3         1 P6L      -0.075400
     42 C43         15.8670    -1.4810     4.6450 c3         1 P6L      -0.075400
     43 C44         17.0480    -1.5390     5.6340 c3         1 P6L      -0.088100
     44 C45        -11.8670     0.7450     2.5180 c3         1 P6L      -0.074400
     45 C46        -12.5910    -0.2710     3.4290 c3         1 P6L      -0.074400
     46 C47        -13.9740    -0.6920     2.8840 c3         1 P6L      -0.076400
     47 C48        -14.7060    -1.7000     3.7980 c3         1 P6L      -0.074400
     48 C49        -16.0820    -2.1240     3.2490 c3         1 P6L      -0.088100
     49 C50          1.4470    -4.4870    -3.6970 c3         1 P6L       0.118600
     50 O51          2.3880    -3.6660    -4.4080 oh         1 P6L      -0.650000
     51 H11         -0.7440    -5.0950    -2.1920 h1         1 P6L       0.023200
     52 H12         -1.0410    -5.8330    -3.7650 h1         1 P6L       0.023200
     53 H2          -0.0180    -2.9570    -3.3590 h1         1 P6L       0.091700
     54 HO3          0.6570    -3.5620    -5.6530 ho         1 P6L       0.430000
     55 H5          -3.1080    -0.1160    -6.1110 h1         1 P6L       0.047700
     56 H61         -0.8560     0.7320    -6.1820 h1         1 P6L       0.044200
     57 H62         -0.8450    -1.0350    -6.3390 h1         1 P6L       0.044200
     58 H71         -4.0580    -1.5840    -4.3970 h1         1 P6L       0.036700
     59 H72         -2.7730    -2.4160    -5.2770 h1         1 P6L       0.036700
     60 H181        -3.1720     2.8580    -2.9490 hc         1 P6L       0.071200
     61 H182        -4.9300     3.0570    -3.2990 hc         1 P6L       0.071200
     62 H191        -5.3940     1.2030    -1.6630 hc         1 P6L       0.053200
     63 H192        -3.6680     1.0710    -1.3240 hc         1 P6L       0.053200
     64 H201        -3.6610     3.4440    -0.4760 hc         1 P6L       0.038200
     65 H202        -5.3860     3.5680    -0.8210 hc         1 P6L       0.038200
     66 H211        -5.8200     1.6820     0.8010 hc         1 P6L       0.047200
     67 H212        -4.1120     1.6220     1.1810 hc         1 P6L       0.047200
     68 H22         -4.1560     3.7330     2.3500 ha         1 P6L       0.164000
     69 H23         -6.2470     4.7230     3.0670 ha         1 P6L       0.160000
     70 H241        -8.2470     4.5230     1.7300 hc         1 P6L       0.044200
     71 H242        -7.5900     3.2210     0.7610 hc         1 P6L       0.044200
     72 H251        -7.7400     1.6740     2.7500 hc         1 P6L       0.038200
     73 H252        -8.4570     2.9810     3.6920 hc         1 P6L       0.038200
     74 H261       -10.3800     3.0840     2.0660 hc         1 P6L       0.037700
     75 H262        -9.6600     1.7670     1.1390 hc         1 P6L       0.037700
     76 H271         2.9070    -0.9850    -3.6400 hc         1 P6L       0.094700
     77 H272         1.3810    -0.9160    -2.6830 hc         1 P6L       0.094700
     78 H281         1.4790     1.5370    -2.6270 hc         1 P6L       0.040200
     79 H282         2.9150     1.5420    -3.6530 hc         1 P6L       0.040200
     80 H291         4.1830     0.2870    -1.8710 hc         1 P6L       0.050700
     81 H292         2.7580     0.3350    -0.8330 hc         1 P6L       0.050700
     82 H301         2.8470     2.8310    -0.7890 hc         1 P6L       0.031700
     83 H302         4.2230     2.8160    -1.8940 hc         1 P6L       0.031700
     84 H311         5.5810     1.5680    -0.1870 hc         1 P6L       0.043700
     85 H312         4.2160     1.6030     0.9290 hc         1 P6L       0.043700
     86 H321         4.3080     4.0990     0.9940 hc         1 P6L       0.040700
     87 H322         5.5990     4.0960    -0.2000 hc         1 P6L       0.040700
     88 H33          5.7900     3.0310     2.6930 ha         1 P6L       0.163000
     89 H34          7.9100     4.0090     0.6690 ha         1 P6L       0.164000
     90 H351         8.0530     3.3140     3.6790 hc         1 P6L       0.039200
     91 H352         9.1030     4.4380     2.8260 hc         1 P6L       0.039200
     92 H361         9.9890     2.5150     1.4390 hc         1 P6L       0.042200
     93 H362         8.9610     1.4080     2.3490 hc         1 P6L       0.042200
     94 H371        -9.8500     0.2600     3.1500 hc         1 P6L       0.036700
     95 H372       -10.5890     1.5790     4.0600 hc         1 P6L       0.036700
     96 H381        10.1740     2.0450     4.4690 hc         1 P6L       0.034700
     97 H382        11.2010     3.1390     3.5410 hc         1 P6L       0.034700
     98 H391        12.0350     1.1700     2.1870 hc         1 P6L       0.038700
     99 H392        11.0450     0.0930     3.1720 hc         1 P6L       0.038700
    100 H401        12.3270     0.8020     5.2220 hc         1 P6L       0.035700
    101 H402        13.3170     1.8710     4.2270 hc         1 P6L       0.035700
    102 H411        14.1250    -0.1300     2.9130 hc         1 P6L       0.037700
    103 H412        13.1640    -1.1850     3.9500 hc         1 P6L       0.037700
    104 H421        14.4920    -0.4230     5.9480 hc         1 P6L       0.035700
    105 H422        15.4510     0.6310     4.9080 hc         1 P6L       0.035700
    106 H431        16.2610    -1.3850     3.6250 hc         1 P6L       0.036700
    107 H432        15.3190    -2.4320     4.6860 hc         1 P6L       0.036700
    108 H441        16.6880    -1.6670     6.6620 hc         1 P6L       0.029700
    109 H442        17.7070    -2.3820     5.3930 hc         1 P6L       0.029700
    110 H443        17.6400    -0.6160     5.5850 hc         1 P6L       0.029700
    111 H451       -12.4910     1.6410     2.4120 hc         1 P6L       0.037700
    112 H452       -11.7530     0.3130     1.5160 hc         1 P6L       0.037700
    113 H461       -11.9630    -1.1630     3.5450 hc         1 P6L       0.036200
    114 H462       -12.7160     0.1660     4.4280 hc         1 P6L       0.036200
    115 H471       -14.6000     0.2010     2.7600 hc         1 P6L       0.037200
    116 H472       -13.8480    -1.1360     1.8880 hc         1 P6L       0.037200
    117 H481       -14.0830    -2.5940     3.9260 hc         1 P6L       0.035700
    118 H482       -14.8410    -1.2580     4.7930 hc         1 P6L       0.035700
    119 H491       -16.5640    -2.8350     3.9310 hc         1 P6L       0.030367
    120 H492       -16.7410    -1.2540     3.1380 hc         1 P6L       0.030367
    121 H493       -15.9770    -2.6060     2.2690 hc         1 P6L       0.030367
    122 H501         1.6970    -4.5120    -2.6280 h1         1 P6L       0.016700
    123 H502         1.4860    -5.5180    -4.0730 h1         1 P6L       0.016700
    124 H51          3.2790    -4.0570    -4.2670 ho         1 P6L       0.426000
    125 C14         -4.0620     1.2380    -4.0590 c          1 P6L       0.601100
@<TRIPOS>BOND
     1     1     2 1   
     2     1    12 1   
     3     1    51 1   
     4     1    52 1   
     5     2     3 1   
     6     2    49 1   
     7     2    53 1   
     8     3    54 1   
     9     4     5 1   
    10     4   125 1   
    11     5     6 1   
    12     5     7 1   
    13     5    55 1   
    14     6     8 1   
    15     6    56 1   
    16     6    57 1   
    17     7     9 1   
    18     7    58 1   
    19     7    59 1   
    20     8    15 1   
    21     9    11 1   
    22    10    11 1   
    23    11    12 1   
    24    11    13 1   
    25    14   125 2   
    26    15    16 2   
    27    15    26 1   
    28    17    18 1   
    29    17    60 1   
    30    17    61 1   
    31    17   125 1   
    32    18    19 1   
    33    18    62 1   
    34    18    63 1   
    35    19    20 1   
    36    19    64 1   
    37    19    65 1   
    38    20    21 1   
    39    20    66 1   
    40    20    67 1   
    41    21    22 2   
    42    21    68 1   
    43    22    23 1   
    44    22    69 1   
    45    23    24 1   
    46    23    70 1   
    47    23    71 1   
    48    24    25 1   
    49    24    72 1   
    50    24    73 1   
    51    25    36 1   
    52    25    74 1   
    53    25    75 1   
    54    26    27 1   
    55    26    76 1   
    56    26    77 1   
    57    27    28 1   
    58    27    78 1   
    59    27    79 1   
    60    28    29 1   
    61    28    80 1   
    62    28    81 1   
    63    29    30 1   
    64    29    82 1   
    65    29    83 1   
    66    30    31 1   
    67    30    84 1   
    68    30    85 1   
    69    31    32 1   
    70    31    86 1   
    71    31    87 1   
    72    32    33 2   
    73    32    88 1   
    74    33    34 1   
    75    33    89 1   
    76    34    35 1   
    77    34    90 1   
    78    34    91 1   
    79    35    37 1   
    80    35    92 1   
    81    35    93 1   
    82    36    44 1   
    83    36    94 1   
    84    36    95 1   
    85    37    38 1   
    86    37    96 1   
    87    37    97 1   
    88    38    39 1   
    89    38    98 1   
    90    38    99 1   
    91    39    40 1   
    92    39   100 1   
    93    39   101 1   
    94    40    41 1   
    95    40   102 1   
    96    40   103 1   
    97    41    42 1   
    98    41   104 1   
    99    41   105 1   
   100    42    43 1   
   101    42   106 1   
   102    42   107 1   
   103    43   108 1   
   104    43   109 1   
   105    43   110 1   
   106    44    45 1   
   107    44   111 1   
   108    44   112 1   
   109    45    46 1   
   110    45   113 1   
   111    45   114 1   
   112    46    47 1   
   113    46   115 1   
   114    46   116 1   
   115    47    48 1   
   116    47   117 1   
   117    47   118 1   
   118    48   119 1   
   119    48   120 1   
   120    48   121 1   
   121    49    50 1   
   122    49   122 1   
   123    49   123 1   
   124    50   124 1   
@<TRIPOS>SUBSTRUCTURE
     1 P6L         1 TEMP              0 ****  ****    0 ROOT
