@<TRIPOS>MOLECULE
P6M
   46    48     1     0     0
SMALL
bcc


@<TRIPOS>ATOM
      1 F1          -2.4730    -3.0660     0.1000 f          1 P6M      -0.143900
      2 C7          -1.4430    -2.2060     0.0070 ca         1 P6M       0.166900
      3 C6          -1.6340    -0.8530     0.2530 ca         1 P6M      -0.131300
      4 C8          -0.2240    -2.7520    -0.3490 ca         1 P6M      -0.227000
      5 C9           0.8590    -1.9060    -0.4560 ca         1 P6M       0.195900
      6 F            2.0380    -2.4270    -0.8160 f          1 P6M      -0.120900
      7 C4           0.7570    -0.5450    -0.2230 ca         1 P6M      -0.159300
      8 C5          -0.4950    -0.0580     0.1320 ca         1 P6M      -0.057000
      9 C3           1.9500     0.3640    -0.3120 c3         1 P6M       0.239100
     10 N            2.8860     0.0690     0.7590 n7         1 P6M      -0.803200
     11 C1           4.1640     0.6980     0.6870 cx         1 P6M       0.054200
     12 C16          5.2050    -0.2360     0.1410 c3         1 P6M       0.702900
     13 F2           5.3380    -1.3300     0.9020 f          1 P6M      -0.233633
     14 F3           4.8970    -0.6650    -1.0930 f          1 P6M      -0.233633
     15 F4           6.4210     0.3250     0.0570 f          1 P6M      -0.233633
     16 C2           4.3150     2.1700     0.4100 cx         1 P6M      -0.122900
     17 C            4.5910     1.6330     1.7770 cx         1 P6M      -0.122900
     18 C10         -2.9960    -0.2490     0.6350 c6         1 P6M       0.256500
     19 C11         -4.0010    -0.5890    -0.4880 c6         1 P6M      -0.106400
     20 C12         -5.2100     0.3280    -0.6270 c6         1 P6M       0.049400
     21 S           -4.6400     2.0210    -0.9670 ss         1 P6M      -0.373300
     22 C13         -3.3630     2.1160     0.2650 c2         1 P6M       0.722100
     23 N1          -2.7890     1.1620     0.8640 n2         1 P6M      -0.722900
     24 N2          -3.0510     3.4090     0.5660 nv         1 P6M      -0.914800
     25 C15         -3.4230    -0.8400     1.9920 c3         1 P6M      -0.082100
     26 C14         -6.2230     0.3010     0.5060 c3         1 P6M      -0.086100
     27 H1          -0.1280    -3.8140    -0.5390 ha         1 P6M       0.169000
     28 H2          -0.5960     1.0020     0.3240 ha         1 P6M       0.150000
     29 H3           2.4530     0.2290    -1.2700 h1         1 P6M       0.045700
     30 H4           1.5920     1.4020    -0.2990 h1         1 P6M       0.045700
     31 H5           2.4570     0.2120     1.6620 hn         1 P6M       0.386800
     32 H7           5.1460     2.5200    -0.1860 hc         1 P6M       0.086950
     33 H8           3.3980     2.7240     0.2600 hc         1 P6M       0.086950
     34 H9           3.8610     1.8170     2.5560 hc         1 P6M       0.086950
     35 H10          5.6140     1.6060     2.1300 hc         1 P6M       0.086950
     36 H11         -3.4830    -0.5850    -1.4500 hc         1 P6M       0.068200
     37 H12         -4.3780    -1.6020    -0.3410 hc         1 P6M       0.068200
     38 H13         -5.7180     0.0360    -1.5490 h1         1 P6M       0.082700
     39 H14         -3.3380     4.1390    -0.0660 hn         1 P6M       0.420300
     40 H15         -2.1490     3.5570     0.9920 hn         1 P6M       0.420300
     41 H16         -2.6350    -0.6850     2.7290 hc         1 P6M       0.047033
     42 H17         -4.3210    -0.3450     2.3590 hc         1 P6M       0.047033
     43 H18         -3.6320    -1.9060     1.9300 hc         1 P6M       0.047033
     44 H19         -5.8420     0.7520     1.4210 hc         1 P6M       0.047700
     45 H20         -7.1230     0.8430     0.2210 hc         1 P6M       0.047700
     46 H21         -6.5090    -0.7280     0.7310 hc         1 P6M       0.047700
@<TRIPOS>BOND
     1     1     2 1   
     2     2     3 ar  
     3     2     4 ar  
     4     3     8 ar  
     5     3    18 1   
     6     4     5 ar  
     7     4    27 1   
     8     5     6 1   
     9     5     7 ar  
    10     7     8 ar  
    11     7     9 1   
    12     8    28 1   
    13     9    10 1   
    14     9    29 1   
    15     9    30 1   
    16    10    11 1   
    17    10    31 1   
    18    11    12 1   
    19    11    16 1   
    20    11    17 1   
    21    12    13 1   
    22    12    14 1   
    23    12    15 1   
    24    16    17 1   
    25    16    32 1   
    26    16    33 1   
    27    17    34 1   
    28    17    35 1   
    29    18    19 1   
    30    18    23 1   
    31    18    25 1   
    32    19    20 1   
    33    19    36 1   
    34    19    37 1   
    35    20    21 1   
    36    20    26 1   
    37    20    38 1   
    38    21    22 1   
    39    22    23 2   
    40    22    24 1   
    41    24    39 1   
    42    24    40 1   
    43    25    41 1   
    44    25    42 1   
    45    25    43 1   
    46    26    44 1   
    47    26    45 1   
    48    26    46 1   
@<TRIPOS>SUBSTRUCTURE
     1 P6M         1 TEMP              0 ****  ****    0 ROOT
