@<TRIPOS>MOLECULE
P6M
   46    48     1     0     0
SMALL
No Charge or Current Charge


@<TRIPOS>ATOM
      1 F1          -2.7120    -3.0040     0.4250 f          1 P6M      -0.179000
      2 C7          -1.5690    -2.3120     0.2240 ca         1 P6M       0.202000
      3 C6          -1.5390    -0.8930     0.2930 ca         1 P6M      -0.131300
      4 C8          -0.4170    -3.0490    -0.0760 ca         1 P6M      -0.209000
      5 C9           0.7940    -2.3970    -0.3230 ca         1 P6M       0.231000
      6 F            1.8900    -3.1340    -0.6140 f          1 P6M      -0.156000
      7 C4           0.8620    -0.9950    -0.2820 ca         1 P6M      -0.159300
      8 C5          -0.2990    -0.2540     0.0190 ca         1 P6M      -0.039000
      9 C3           2.1680    -0.2690    -0.5620 c3         1 P6M       0.239100
     10 N            2.8710    -0.0070     0.7070 n7         1 P6M      -0.858400
     11 C1           4.1050     0.7750     0.6220 cx         1 P6M       0.054200
     12 C16          5.3500     0.0840    -0.0200 c3         1 P6M       0.339000
     13 F2           5.5780    -1.1270     0.5400 f          1 P6M      -0.112333
     14 F3           5.1790    -0.1020    -1.3500 f          1 P6M      -0.112333
     15 F4           6.4780     0.8180     0.1350 f          1 P6M      -0.112333
     16 C2           3.9090     2.2670     0.4370 cx         1 P6M      -0.122900
     17 C            4.3020     1.7230     1.7890 cx         1 P6M      -0.122900
     18 C10         -2.8240    -0.0610     0.6170 c6         1 P6M       0.256500
     19 C11         -3.7870    -0.1760    -0.6060 c6         1 P6M      -0.106400
     20 C12         -5.1190     0.6050    -0.5140 c6         1 P6M       0.097300
     21 S           -4.9140     2.3150     0.1290 ss         1 P6M      -0.421200
     22 C13         -3.2620     2.3160     0.7680 c2         1 P6M       0.722100
     23 N1          -2.4550     1.3430     0.8950 n2         1 P6M      -0.722900
     24 N2          -2.8990     3.5740     1.0590 nv         1 P6M      -1.025200
     25 C15         -3.4490    -0.5750     1.9560 c3         1 P6M      -0.082100
     26 C14         -6.2540    -0.1200     0.2590 c3         1 P6M      -0.086100
     27 H1          -0.4640    -4.1330    -0.1230 ha         1 P6M       0.151000
     28 H2          -0.2160     0.8300     0.0310 ha         1 P6M       0.132000
     29 H3           2.7850    -0.8730    -1.2400 h1         1 P6M       0.045700
     30 H4           1.9450     0.6730    -1.0820 h1         1 P6M       0.045700
     31 H5           2.2090     0.4760     1.3240 hn         1 P6M       0.442000
     32 H7           4.6600     2.8170    -0.1250 hc         1 P6M       0.086950
     33 H8           2.8960     2.6450     0.3180 hc         1 P6M       0.086950
     34 H9           3.5520     1.7370     2.5760 hc         1 P6M       0.086950
     35 H10          5.3130     1.9190     2.1380 hc         1 P6M       0.086950
     36 H11         -3.2450     0.1890    -1.4900 hc         1 P6M       0.068200
     37 H12         -4.0090    -1.2270    -0.8260 hc         1 P6M       0.068200
     38 H13         -5.4900     0.7160    -1.5440 h1         1 P6M       0.082700
     39 H14         -3.4170     4.2570     0.5240 hn         1 P6M       0.475500
     40 H15         -1.8950     3.6920     1.0520 hn         1 P6M       0.475500
     41 H16         -2.6680    -0.7650     2.7020 hc         1 P6M       0.047033
     42 H17         -4.1320     0.1570     2.4000 hc         1 P6M       0.047033
     43 H18         -4.0170    -1.5010     1.8270 hc         1 P6M       0.047033
     44 H19         -6.0850    -0.1420     1.3390 hc         1 P6M       0.047700
     45 H20         -7.2110     0.3880     0.0970 hc         1 P6M       0.047700
     46 H21         -6.3720    -1.1540    -0.0860 hc         1 P6M       0.047700
@<TRIPOS>BOND
     1     1     2 1   
     2     2     3 ar  
     3     2     4 ar  
     4     3     8 ar  
     5     3    18 1   
     6     4     5 ar  
     7     4    27 1   
     8     5     6 1   
     9     5     7 ar  
    10     7     8 ar  
    11     7     9 1   
    12     8    28 1   
    13     9    10 1   
    14     9    29 1   
    15     9    30 1   
    16    10    11 1   
    17    10    31 1   
    18    11    12 1   
    19    11    16 1   
    20    11    17 1   
    21    12    13 1   
    22    12    14 1   
    23    12    15 1   
    24    16    17 1   
    25    16    32 1   
    26    16    33 1   
    27    17    34 1   
    28    17    35 1   
    29    18    19 1   
    30    18    23 1   
    31    18    25 1   
    32    19    20 1   
    33    19    36 1   
    34    19    37 1   
    35    20    21 1   
    36    20    26 1   
    37    20    38 1   
    38    21    22 1   
    39    22    23 2   
    40    22    24 1   
    41    24    39 1   
    42    24    40 1   
    43    25    41 1   
    44    25    42 1   
    45    25    43 1   
    46    26    44 1   
    47    26    45 1   
    48    26    46 1   
@<TRIPOS>SUBSTRUCTURE
     1 P6M         1 TEMP              0 ****  ****    0 ROOT
