@<TRIPOS>MOLECULE
P6N
   24    25     1     0     0
SMALL
No Charge or Current Charge


@<TRIPOS>ATOM
      1 C11          6.2400    -0.5230    18.6340 c          1 P6N       0.586700
      2 C10          5.4350     0.4090    19.5140 ca         1 P6N      -0.175600
      3 C01          8.0760    -2.3380    18.4620 c3         1 P6N      -0.077100
      4 C02          6.9250    -1.7320    19.3200 c6         1 P6N      -0.159700
      5 C03          7.3760    -1.3870    20.7590 c6         1 P6N      -0.067400
      6 C04          6.1890    -0.8800    21.6040 c6         1 P6N      -0.039100
      7 C05          5.4080     0.2450    20.9210 ca         1 P6N      -0.034300
      8 C06          4.6420     1.1210    21.7140 ca         1 P6N      -0.128000
      9 C07          3.9120     2.1640    21.1240 ca         1 P6N      -0.080000
     10 C08          3.9420     2.3360    19.7320 ca         1 P6N      -0.129000
     11 C09          4.6970     1.4650    18.9310 ca         1 P6N      -0.053000
     12 O12          6.3540    -0.3230    17.4290 o          1 P6N      -0.525100
     13 H013         8.5230    -3.2070    18.9580 hc         1 P6N       0.042033
     14 H1           7.7120    -2.6730    17.4830 hc         1 P6N       0.042033
     15 H012         8.8740    -1.6050    18.2920 hc         1 P6N       0.042033
     16 H021         6.1410    -2.4950    19.4250 hc         1 P6N       0.069700
     17 H031         7.8230    -2.2670    21.2430 hc         1 P6N       0.050200
     18 H032         8.1590    -0.6160    20.7270 hc         1 P6N       0.050200
     19 H041         5.5050    -1.7140    21.8110 hc         1 P6N       0.054200
     20 H042         6.5610    -0.5410    22.5800 hc         1 P6N       0.054200
     21 H061         4.6140     0.9940    22.7940 ha         1 P6N       0.113000
     22 H071         3.3250     2.8380    21.7450 ha         1 P6N       0.114000
     23 H081         3.3770     3.1440    19.2730 ha         1 P6N       0.118000
     24 H091         4.7050     1.6130    17.8520 ha         1 P6N       0.133000
@<TRIPOS>BOND
     1     1     2 1   
     2     1     4 1   
     3     1    12 2   
     4     2     7 ar  
     5     2    11 ar  
     6     3     4 1   
     7     3    13 1   
     8     3    14 1   
     9     3    15 1   
    10     4     5 1   
    11     4    16 1   
    12     5     6 1   
    13     5    17 1   
    14     5    18 1   
    15     6     7 1   
    16     6    19 1   
    17     6    20 1   
    18     7     8 ar  
    19     8     9 ar  
    20     8    21 1   
    21     9    10 ar  
    22     9    22 1   
    23    10    11 ar  
    24    10    23 1   
    25    11    24 1   
@<TRIPOS>SUBSTRUCTURE
     1 P6N         1 TEMP              0 ****  ****    0 ROOT
