@<TRIPOS>MOLECULE
P6N
   24    25     1     0     0
SMALL
bcc


@<TRIPOS>ATOM
      1 C11          6.2750    -0.4950    18.6720 c          1 P6N       0.586700
      2 C10          5.4660     0.4030    19.5410 ca         1 P6N      -0.175600
      3 C01          8.0070    -2.3240    18.4850 c3         1 P6N      -0.077100
      4 C02          6.9070    -1.7010    19.3290 c6         1 P6N      -0.159700
      5 C03          7.3790    -1.3360    20.7360 c6         1 P6N      -0.067400
      6 C04          6.2110    -0.8720    21.5900 c6         1 P6N      -0.039100
      7 C05          5.4320     0.2280    20.9290 ca         1 P6N      -0.034300
      8 C06          4.6540     1.0950    21.6940 ca         1 P6N      -0.146000
      9 C07          3.9230     2.1100    21.1000 ca         1 P6N      -0.098000
     10 C08          3.9610     2.2830    19.7200 ca         1 P6N      -0.147000
     11 C09          4.7320     1.4360    18.9490 ca         1 P6N      -0.071000
     12 O12          6.3960    -0.2710    17.4850 o          1 P6N      -0.525100
     13 H013         8.3770    -3.2270    18.9720 hc         1 P6N       0.042033
     14 H1           7.6540    -2.6030    17.4930 hc         1 P6N       0.042033
     15 H012         8.8490    -1.6410    18.3660 hc         1 P6N       0.042033
     16 H021         6.0900    -2.4310    19.4410 hc         1 P6N       0.069700
     17 H031         7.8560    -2.2040    21.1960 hc         1 P6N       0.050200
     18 H032         8.1390    -0.5510    20.6760 hc         1 P6N       0.050200
     19 H041         5.5400    -1.7200    21.7700 hc         1 P6N       0.054200
     20 H042         6.5540    -0.5420    22.5720 hc         1 P6N       0.054200
     21 H061         4.6270     0.9720    22.7710 ha         1 P6N       0.131000
     22 H071         3.3250     2.7720    21.7140 ha         1 P6N       0.132000
     23 H081         3.3940     3.0780    19.2530 ha         1 P6N       0.136000
     24 H091         4.7670     1.5670    17.8750 ha         1 P6N       0.151000
@<TRIPOS>BOND
     1     1     2 1   
     2     1     4 1   
     3     1    12 2   
     4     2     7 ar  
     5     2    11 ar  
     6     3     4 1   
     7     3    13 1   
     8     3    14 1   
     9     3    15 1   
    10     4     5 1   
    11     4    16 1   
    12     5     6 1   
    13     5    17 1   
    14     5    18 1   
    15     6     7 1   
    16     6    19 1   
    17     6    20 1   
    18     7     8 ar  
    19     8     9 ar  
    20     8    21 1   
    21     9    10 ar  
    22     9    22 1   
    23    10    11 ar  
    24    10    23 1   
    25    11    24 1   
@<TRIPOS>SUBSTRUCTURE
     1 P6N         1 TEMP              0 ****  ****    0 ROOT
