@<TRIPOS>MOLECULE
P6O
   40    43     1     0     0
SMALL
No Charge or Current Charge


@<TRIPOS>ATOM
      1 N1           8.0470    -0.2700    20.7330 ns         1 P6O      -0.151000
      2 C4          12.3590     1.2470    23.6770 ca         1 P6O      -0.154000
      3 C5          13.5650     0.7770    23.1290 ca         1 P6O      -0.055000
      4 C6          13.5630    -0.3640    22.3120 ca         1 P6O       0.084000
      5 C7          12.3600    -1.0390    22.0420 ca         1 P6O      -0.046000
      6 C8          11.1420    -0.5830    22.5990 ca         1 P6O      -0.159300
      7 C10          7.2950     0.2010    19.6130 ca         1 P6O      -0.081000
      8 C13          5.4250     1.4450    18.6840 ca         1 P6O      -0.093000
      9 C15          3.8520     2.6300    20.1170 ca         1 P6O      -0.106000
     10 C17          5.7070     1.3950    21.1030 ca         1 P6O      -0.088000
     11 C9           9.3290    -0.8100    20.8260 c          1 P6O       0.610100
     12 C            9.8020    -1.2850    22.2700 c6         1 P6O       0.165300
     13 C3          11.1570     0.5690    23.4150 ca         1 P6O       0.023000
     14 N            9.9500     1.0430    23.9570 ns         1 P6O      -0.137000
     15 C2           8.7330     0.4050    23.9340 c          1 P6O       0.586000
     16 O1           7.6980     0.9510    24.2860 o          1 P6O      -0.528000
     17 C1           8.7510    -1.0310    23.4000 c6         1 P6O      -0.198400
     18 O           10.0240    -2.7100    22.2510 oh         1 P6O      -0.657000
     19 C18          6.1480     1.0080    19.8160 ca         1 P6O      -0.002000
     20 C16          4.5640     2.2010    21.2490 ca         1 P6O      -0.089000
     21 C14          4.2810     2.2530    18.8350 ca         1 P6O      -0.086000
     22 C12          5.8610     1.0620    17.4020 ca         1 P6O       0.361900
     23 N2           6.9460     0.2830    17.1950 nb         1 P6O      -0.656000
     24 C11          7.6400    -0.1340    18.2780 ca         1 P6O       0.314900
     25 H1           7.5480    -0.2270    21.6110 hn         1 P6O       0.179000
     26 H2          12.3630     2.1350    24.3050 ha         1 P6O       0.125000
     27 H3          14.4980     1.2990    23.3310 ha         1 P6O       0.134000
     28 H4          12.3790    -1.9080    21.3890 ha         1 P6O       0.140000
     29 H5           2.9690     3.2540    20.2340 ha         1 P6O       0.117000
     30 H6           6.2350     1.0840    21.9980 ha         1 P6O       0.122000
     31 H7           9.9640     1.9760    24.3470 hn         1 P6O       0.169000
     32 H8           7.7370    -1.3860    23.1720 hc         1 P6O       0.083200
     33 H9           9.0960    -1.6150    24.2650 hc         1 P6O       0.083200
     34 H10         10.5280    -2.9300    23.0650 ho         1 P6O       0.464000
     35 H11          4.2310     2.4950    22.2420 ha         1 P6O       0.120000
     36 H12          3.7250     2.5880    17.9610 ha         1 P6O       0.117000
     37 H13          5.3240     1.3830    16.5110 h4         1 P6O       0.021100
     38 H14          8.4840    -0.7790    18.0510 h4         1 P6O       0.023100
     39 Cl          15.0690    -0.9450    21.6130 cl         1 P6O      -0.195000
     40 O2          10.0700    -0.9050    19.8500 o          1 P6O      -0.561100
@<TRIPOS>BOND
     1     1     7 1   
     2     1    11 1   
     3     1    25 1   
     4     2     3 ar  
     5     2    13 ar  
     6     2    26 1   
     7     3     4 ar  
     8     3    27 1   
     9     4     5 ar  
    10     4    39 1   
    11     5     6 ar  
    12     5    28 1   
    13     6    12 1   
    14     6    13 ar  
    15     7    19 ar  
    16     7    24 ar  
    17     8    19 ar  
    18     8    21 ar  
    19     8    22 ar  
    20     9    20 ar  
    21     9    21 ar  
    22     9    29 1   
    23    10    19 ar  
    24    10    20 ar  
    25    10    30 1   
    26    11    12 1   
    27    11    40 2   
    28    12    17 1   
    29    12    18 1   
    30    13    14 1   
    31    14    15 1   
    32    14    31 1   
    33    15    16 2   
    34    15    17 1   
    35    17    32 1   
    36    17    33 1   
    37    18    34 1   
    38    20    35 1   
    39    21    36 1   
    40    22    23 ar  
    41    22    37 1   
    42    23    24 ar  
    43    24    38 1   
@<TRIPOS>SUBSTRUCTURE
     1 P6O         1 TEMP              0 ****  ****    0 ROOT
