@<TRIPOS>MOLECULE
P6O
   40    43     1     0     0
SMALL
abcg2


@<TRIPOS>ATOM
      1 N1           8.0270    -0.8070    20.5090 ns         1 P6O      -0.151000
      2 C4          12.4760     1.1800    23.6200 ca         1 P6O      -0.154000
      3 C5          13.5490     0.6000    22.9650 ca         1 P6O      -0.055000
      4 C6          13.3290    -0.4920    22.1410 ca         1 P6O       0.084000
      5 C7          12.0530    -0.9990    21.9570 ca         1 P6O      -0.046000
      6 C8          10.9770    -0.4130    22.6040 ca         1 P6O      -0.159300
      7 C10          7.2940    -0.2010    19.4680 ca         1 P6O      -0.081000
      8 C13          5.5990     1.2950    18.6300 ca         1 P6O      -0.093000
      9 C15          4.2290     2.6340    20.0890 ca         1 P6O      -0.106000
     10 C17          5.8800     1.1410    21.0420 ca         1 P6O      -0.088000
     11 C9           8.9020    -0.1160    21.2660 c          1 P6O       0.610100
     12 C            9.5680    -0.9210    22.3950 c6         1 P6O       0.165300
     13 C3          11.1900     0.6780    23.4480 ca         1 P6O       0.023000
     14 N           10.1230     1.2740    24.1110 ns         1 P6O      -0.137000
     15 C2           8.8780     0.7420    24.2010 c          1 P6O       0.586000
     16 O1           7.9580     1.3290    24.7340 o          1 P6O      -0.528000
     17 C1           8.7510    -0.6640    23.6670 c6         1 P6O      -0.198400
     18 O            9.5310    -2.2700    22.0310 oh         1 P6O      -0.657000
     19 C18          6.2710     0.7410    19.7450 ca         1 P6O      -0.002000
     20 C16          4.8830     2.0640    21.2030 ca         1 P6O      -0.089000
     21 C14          4.5770     2.2510    18.8240 ca         1 P6O      -0.086000
     22 C12          5.9670     0.8540    17.3380 ca         1 P6O       0.361900
     23 N2           6.8950    -0.0340    17.1100 nb         1 P6O      -0.656000
     24 C11          7.5550    -0.5450    18.1690 ca         1 P6O       0.314900
     25 H1           7.9910    -1.8110    20.6080 hn         1 P6O       0.179000
     26 H2          12.6430     2.0270    24.2740 ha         1 P6O       0.125000
     27 H3          14.5450     0.9950    23.1070 ha         1 P6O       0.134000
     28 H4          11.8940    -1.8460    21.3040 ha         1 P6O       0.140000
     29 H5           3.4480     3.3660    20.2440 ha         1 P6O       0.117000
     30 H6           6.3510     0.7090    21.9140 ha         1 P6O       0.122000
     31 H7          10.2730     2.1770    24.5400 hn         1 P6O       0.169000
     32 H8           7.6970    -0.8950    23.5090 hc         1 P6O       0.083200
     33 H9           9.1170    -1.3350    24.4540 hc         1 P6O       0.083200
     34 H10          9.7690    -2.8180    22.7880 ho         1 P6O       0.464000
     35 H11          4.5880     2.3630    22.2000 ha         1 P6O       0.120000
     36 H12          4.0760     2.6690    17.9600 ha         1 P6O       0.117000
     37 H13          5.4520     1.2680    16.4760 h4         1 P6O       0.021100
     38 H14          8.3320    -1.2690    17.9510 h4         1 P6O       0.023100
     39 CL          14.6680    -1.2350    21.3290 cl         1 P6O      -0.195000
     40 O2           9.1110     1.0740    21.1430 o          1 P6O      -0.561100
@<TRIPOS>BOND
     1     1     7 1   
     2     1    11 1   
     3     1    25 1   
     4     2     3 ar  
     5     2    13 ar  
     6     2    26 1   
     7     3     4 ar  
     8     3    27 1   
     9     4     5 ar  
    10     4    39 1   
    11     5     6 ar  
    12     5    28 1   
    13     6    12 1   
    14     6    13 ar  
    15     7    19 ar  
    16     7    24 ar  
    17     8    19 ar  
    18     8    21 ar  
    19     8    22 ar  
    20     9    20 ar  
    21     9    21 ar  
    22     9    29 1   
    23    10    19 ar  
    24    10    20 ar  
    25    10    30 1   
    26    11    12 1   
    27    11    40 2   
    28    12    17 1   
    29    12    18 1   
    30    13    14 1   
    31    14    15 1   
    32    14    31 1   
    33    15    16 2   
    34    15    17 1   
    35    17    32 1   
    36    17    33 1   
    37    18    34 1   
    38    20    35 1   
    39    21    36 1   
    40    22    23 ar  
    41    22    37 1   
    42    23    24 ar  
    43    24    38 1   
@<TRIPOS>SUBSTRUCTURE
     1 P6O         1 TEMP              0 ****  ****    0 ROOT
