@<TRIPOS>MOLECULE
P6R
   56    59     1     0     0
SMALL
abcg2


@<TRIPOS>ATOM
      1 C4          -3.3050    12.0930   -34.2480 c3         1 P6R      -0.083433
      2 C2          -2.3730    11.1580   -32.1350 c3         1 P6R      -0.083433
      3 C18         -0.6600     4.5640   -36.6920 cc         1 P6R       0.097000
      4 C12         -0.5950     4.9180   -38.0040 cd         1 P6R      -0.226000
      5 S01         -2.1060     5.5710   -38.5150 ss         1 P6R       0.200000
      6 C19         -2.8180     5.3450   -36.9520 cd         1 P6R      -0.215300
      7 C09         -1.9220     4.8020   -36.0790 cc         1 P6R      -0.105000
      8 C23         -4.2590     5.7050   -36.7210 c3         1 P6R       0.180300
      9 C16         -4.3310     7.1640   -34.7320 ca         1 P6R      -0.059000
     10 C06         -3.2810     7.3530   -33.8460 ca         1 P6R      -0.114000
     11 C08         -3.0380     8.6140   -33.3090 ca         1 P6R      -0.100000
     12 C17         -3.8210     9.7170   -33.6530 ca         1 P6R      -0.058300
     13 C07         -4.8670     9.5040   -34.5600 ca         1 P6R      -0.100000
     14 C05         -5.1240     8.2500   -35.0920 ca         1 P6R      -0.114000
     15 C20         -5.0320     4.8060   -34.6000 c          1 P6R       0.600100
     16 O01         -5.1230     3.6900   -35.1050 o          1 P6R      -0.577100
     17 C22         -5.4320     5.0470   -33.1470 c3         1 P6R      -0.100100
     18 C15         -6.5550     4.1470   -32.7160 ca         1 P6R      -0.103300
     19 C11         -6.3280     3.1230   -31.8320 ca         1 P6R       0.339900
     20 N01         -7.2770     2.2530   -31.3950 nb         1 P6R      -0.659000
     21 C10         -8.4990     2.4060   -31.8490 ca         1 P6R       0.364900
     22 C14         -7.8750     4.3220   -33.2200 ca         1 P6R       0.005000
     23 C04         -8.2430     5.3300   -34.1430 ca         1 P6R      -0.107000
     24 C02         -9.5380     5.4220   -34.5910 ca         1 P6R      -0.090000
     25 C13         -8.8750     3.4160   -32.7690 ca         1 P6R      -0.098000
     26 C03        -10.2000     3.5340   -33.2470 ca         1 P6R      -0.078000
     27 C01        -10.5260     4.5180   -34.1440 ca         1 P6R      -0.114000
     28 C1          -3.5740    11.1160   -33.0880 c3         1 P6R      -0.004700
     29 C3          -4.8230    11.5760   -32.3120 c3         1 P6R      -0.083433
     30 H1          -3.1130    13.0930   -33.8540 hc         1 P6R       0.037256
     31 H2          -2.4310    11.7790   -34.8250 hc         1 P6R       0.037256
     32 H3          -4.1550    12.1580   -34.9280 hc         1 P6R       0.037256
     33 H4          -2.5120    10.5000   -31.2750 hc         1 P6R       0.037256
     34 H5          -1.4500    10.8700   -32.6420 hc         1 P6R       0.037256
     35 H6          -2.2480    12.1740   -31.7580 hc         1 P6R       0.037256
     36 H7           0.2350     4.8340   -38.6860 h4         1 P6R       0.164000
     37 H8          -2.1360     4.5810   -35.0440 ha         1 P6R       0.148000
     38 H9          -4.4940     6.6370   -37.2330 h1         1 P6R       0.073200
     39 H10         -4.9070     4.9270   -37.1260 h1         1 P6R       0.073200
     40 H11         -2.6520     6.5180   -33.5630 ha         1 P6R       0.121500
     41 H12         -2.2170     8.7200   -32.6160 ha         1 P6R       0.118500
     42 H13         -5.5020    10.3270   -34.8600 ha         1 P6R       0.118500
     43 H14         -5.9460     8.1070   -35.7820 ha         1 P6R       0.121500
     44 H15         -4.5490     4.8380   -32.5390 hc         1 P6R       0.072700
     45 H16         -5.6860     6.0930   -32.9810 hc         1 P6R       0.072700
     46 H17         -5.3300     2.9680   -31.4360 h4         1 P6R       0.018100
     47 H18         -9.2570     1.7100   -31.5000 h4         1 P6R       0.019100
     48 H19         -7.5040     6.0340   -34.4980 ha         1 P6R       0.116000
     49 H20         -9.8060     6.1970   -35.2990 ha         1 P6R       0.113000
     50 H21        -10.9490     2.8340   -32.8940 ha         1 P6R       0.117000
     51 H22        -11.5400     4.6080   -34.5130 ha         1 P6R       0.116000
     52 H23         -5.0280    10.9010   -31.4780 hc         1 P6R       0.037256
     53 H24         -4.6680    12.5800   -31.9100 hc         1 P6R       0.037256
     54 H25         -5.7060    11.6000   -32.9530 hc         1 P6R       0.037256
     55 N02         -4.5820     5.8760   -35.3080 n          1 P6R      -0.247400
     56 CL01         0.6780     3.8700   -35.8210 cl         1 P6R      -0.183000
@<TRIPOS>BOND
     1     1    28 1   
     2     1    30 1   
     3     1    31 1   
     4     1    32 1   
     5     2    28 1   
     6     2    33 1   
     7     2    34 1   
     8     2    35 1   
     9     3     4 2   
    10     3     7 1   
    11     3    56 1   
    12     4     5 1   
    13     4    36 1   
    14     5     6 1   
    15     6     7 2   
    16     6     8 1   
    17     7    37 1   
    18     8    38 1   
    19     8    39 1   
    20     8    55 1   
    21     9    10 ar  
    22     9    14 ar  
    23     9    55 1   
    24    10    11 ar  
    25    10    40 1   
    26    11    12 ar  
    27    11    41 1   
    28    12    13 ar  
    29    12    28 1   
    30    13    14 ar  
    31    13    42 1   
    32    14    43 1   
    33    15    16 2   
    34    15    17 1   
    35    15    55 1   
    36    17    18 1   
    37    17    44 1   
    38    17    45 1   
    39    18    19 ar  
    40    18    22 ar  
    41    19    20 ar  
    42    19    46 1   
    43    20    21 ar  
    44    21    25 ar  
    45    21    47 1   
    46    22    23 ar  
    47    22    25 ar  
    48    23    24 ar  
    49    23    48 1   
    50    24    27 ar  
    51    24    49 1   
    52    25    26 ar  
    53    26    27 ar  
    54    26    50 1   
    55    27    51 1   
    56    28    29 1   
    57    29    52 1   
    58    29    53 1   
    59    29    54 1   
@<TRIPOS>SUBSTRUCTURE
     1 P6R         1 TEMP              0 ****  ****    0 ROOT
