@<TRIPOS>MOLECULE
P6R
   56    59     1     0     0
SMALL
No Charge or Current Charge


@<TRIPOS>ATOM
      1 C4          -3.4260    11.9500   -34.4300 c3         1 P6R      -0.083433
      2 C2          -2.9260    11.2870   -32.0590 c3         1 P6R      -0.083433
      3 C18         -0.5970     4.5360   -37.3970 cc         1 P6R       0.097000
      4 C12         -0.5010     5.8520   -37.7590 cd         1 P6R      -0.226000
      5 S01         -2.0370     6.7010   -37.5070 ss         1 P6R       0.200000
      6 C19         -2.7790     5.2030   -36.9140 cd         1 P6R      -0.215300
      7 C09         -1.8780     4.1700   -36.9210 cc         1 P6R      -0.105000
      8 C23         -4.2130     5.1800   -36.4560 c3         1 P6R       0.180300
      9 C16         -4.1460     6.8910   -34.6430 ca         1 P6R      -0.059000
     10 C06         -3.3600     7.2200   -33.5230 ca         1 P6R      -0.114000
     11 C08         -3.2600     8.5480   -33.0730 ca         1 P6R      -0.100000
     12 C17         -3.9830     9.5880   -33.7070 ca         1 P6R      -0.058300
     13 C07         -4.8200     9.2360   -34.7900 ca         1 P6R      -0.100000
     14 C05         -4.9160     7.9080   -35.2370 ca         1 P6R      -0.114000
     15 C20         -4.5160     4.4420   -34.0990 c          1 P6R       0.600100
     16 O01         -4.2490     3.2870   -34.4150 o          1 P6R      -0.577100
     17 C22         -5.1070     4.7220   -32.7010 c3         1 P6R      -0.100100
     18 C15         -6.4510     4.0040   -32.5240 ca         1 P6R      -0.103300
     19 C11         -6.4780     2.7650   -31.8480 ca         1 P6R       0.339900
     20 N01         -7.6010     2.0420   -31.6440 nb         1 P6R      -0.659000
     21 C10         -8.7620     2.5390   -32.1270 ca         1 P6R       0.364900
     22 C14         -7.6710     4.5170   -33.0310 ca         1 P6R       0.005000
     23 C04         -7.7590     5.7400   -33.7340 ca         1 P6R      -0.107000
     24 C02         -8.9980     6.1950   -34.2160 ca         1 P6R      -0.090000
     25 C13         -8.8460     3.7600   -32.8230 ca         1 P6R      -0.098000
     26 C03        -10.0860     4.2200   -33.3070 ca         1 P6R      -0.078000
     27 C01        -10.1600     5.4370   -34.0030 ca         1 P6R      -0.114000
     28 C1          -3.9070    11.0680   -33.2460 c3         1 P6R      -0.004700
     29 C3          -5.3170    11.5350   -32.7930 c3         1 P6R      -0.083433
     30 H1          -3.3280    12.9990   -34.1230 hc         1 P6R       0.037256
     31 H2          -2.4480    11.6110   -34.7920 hc         1 P6R       0.037256
     32 H3          -4.1280    11.9180   -35.2710 hc         1 P6R       0.037256
     33 H4          -3.2390    10.7170   -31.1760 hc         1 P6R       0.037256
     34 H5          -1.9060    10.9840   -32.3280 hc         1 P6R       0.037256
     35 H6          -2.8900    12.3450   -31.7710 hc         1 P6R       0.037256
     36 H7           0.3600     6.3790   -38.1490 h4         1 P6R       0.164000
     37 H8          -2.1050     3.1600   -36.5910 ha         1 P6R       0.148000
     38 H9          -4.7890     5.8940   -37.0570 h1         1 P6R       0.073200
     39 H10         -4.6440     4.1910   -36.6620 h1         1 P6R       0.073200
     40 H11         -2.7940     6.4470   -33.0080 ha         1 P6R       0.121500
     41 H12         -2.6160     8.7410   -32.2220 ha         1 P6R       0.118500
     42 H13         -5.4190     9.9930   -35.2900 ha         1 P6R       0.118500
     43 H14         -5.6030     7.6780   -36.0480 ha         1 P6R       0.121500
     44 H15         -4.3900     4.3460   -31.9630 hc         1 P6R       0.072700
     45 H16         -5.2320     5.7900   -32.5110 hc         1 P6R       0.072700
     46 H17         -5.5600     2.3330   -31.4510 h4         1 P6R       0.018100
     47 H18         -9.6520     1.9360   -31.9510 h4         1 P6R       0.019100
     48 H19         -6.8820     6.3520   -33.9130 ha         1 P6R       0.116000
     49 H20         -9.0570     7.1380   -34.7550 ha         1 P6R       0.113000
     50 H21        -10.9900     3.6360   -33.1450 ha         1 P6R       0.117000
     51 H22        -11.1180     5.7920   -34.3770 ha         1 P6R       0.116000
     52 H23         -5.6920    10.9010   -31.9810 hc         1 P6R       0.037256
     53 H24         -5.2900    12.5700   -32.4300 hc         1 P6R       0.037256
     54 H25         -6.0400    11.4930   -33.6150 hc         1 P6R       0.037256
     55 N02         -4.3570     5.5140   -35.0190 n          1 P6R      -0.247400
     56 Cl01         0.7030     3.3930   -37.4950 cl         1 P6R      -0.183000
@<TRIPOS>BOND
     1     1    28 1   
     2     1    30 1   
     3     1    31 1   
     4     1    32 1   
     5     2    28 1   
     6     2    33 1   
     7     2    34 1   
     8     2    35 1   
     9     3     4 2   
    10     3     7 1   
    11     3    56 1   
    12     4     5 1   
    13     4    36 1   
    14     5     6 1   
    15     6     7 2   
    16     6     8 1   
    17     7    37 1   
    18     8    38 1   
    19     8    39 1   
    20     8    55 1   
    21     9    10 ar  
    22     9    14 ar  
    23     9    55 1   
    24    10    11 ar  
    25    10    40 1   
    26    11    12 ar  
    27    11    41 1   
    28    12    13 ar  
    29    12    28 1   
    30    13    14 ar  
    31    13    42 1   
    32    14    43 1   
    33    15    16 2   
    34    15    17 1   
    35    15    55 1   
    36    17    18 1   
    37    17    44 1   
    38    17    45 1   
    39    18    19 ar  
    40    18    22 ar  
    41    19    20 ar  
    42    19    46 1   
    43    20    21 ar  
    44    21    25 ar  
    45    21    47 1   
    46    22    23 ar  
    47    22    25 ar  
    48    23    24 ar  
    49    23    48 1   
    50    24    27 ar  
    51    24    49 1   
    52    25    26 ar  
    53    26    27 ar  
    54    26    50 1   
    55    27    51 1   
    56    28    29 1   
    57    29    52 1   
    58    29    53 1   
    59    29    54 1   
@<TRIPOS>SUBSTRUCTURE
     1 P6R         1 TEMP              0 ****  ****    0 ROOT
