@<TRIPOS>MOLECULE
P6S
   18    18     1     0     0
SMALL
No Charge or Current Charge


@<TRIPOS>ATOM
      1 C21         -0.5660    -0.0290    -0.8450 c3         1 P6S       0.237900
      2 C22          0.8900    -0.0070    -0.3940 ca         1 P6S      -0.051300
      3 C24          2.9050     1.2400     0.1980 ca         1 P6S      -0.126000
      4 C26          2.9250    -1.1910     0.2550 ca         1 P6S      -0.126000
      5 C19         -2.7660    -0.0240     0.1430 c          1 P6S       0.821100
      6 C23          1.5610     1.2200    -0.2130 ca         1 P6S      -0.097500
      7 C25          3.5870     0.0350     0.4320 ca         1 P6S      -0.134000
      8 C27          1.5800    -1.2120    -0.1560 ca         1 P6S      -0.097500
      9 O20         -1.4140    -0.0090     0.3180 os         1 P6S      -0.538100
     10 O28         -3.2370    -0.0540    -0.9830 o          1 P6S      -0.720500
     11 H7          -0.7600     0.8440    -1.4830 h1         1 P6S       0.023200
     12 H8          -0.7460    -0.9330    -1.4420 h1         1 P6S       0.023200
     13 H9           3.4170     2.1900     0.3360 ha         1 P6S       0.094000
     14 H10          3.4520    -2.1250     0.4370 ha         1 P6S       0.094000
     15 H20          1.0380     2.1570    -0.3910 ha         1 P6S       0.113500
     16 H21          4.6270     0.0500     0.7500 ha         1 P6S       0.091000
     17 H22          1.0730    -2.1650    -0.2900 ha         1 P6S       0.113500
     18 OXT         -3.4490    -0.0070     1.1510 o          1 P6S      -0.720500
@<TRIPOS>BOND
     1     1     2 1   
     2     1     9 1   
     3     1    11 1   
     4     1    12 1   
     5     2     6 ar  
     6     2     8 ar  
     7     3     6 ar  
     8     3     7 ar  
     9     3    13 1   
    10     4     7 ar  
    11     4     8 ar  
    12     4    14 1   
    13     5     9 1   
    14     5    10 1   
    15     5    18 1   
    16     6    15 1   
    17     7    16 1   
    18     8    17 1   
@<TRIPOS>SUBSTRUCTURE
     1 P6S         1 TEMP              0 ****  ****    0 ROOT
