@<TRIPOS>MOLECULE
P6S
   18    18     1     0     0
SMALL
abcg2


@<TRIPOS>ATOM
      1 C21         -0.5590     0.1050    -0.8390 c3         1 P6S       0.237900
      2 C22          0.8810     0.0740    -0.4100 ca         1 P6S      -0.051300
      3 C24          2.9540     1.2100     0.1040 ca         1 P6S      -0.126000
      4 C26          2.8070    -1.1750     0.3490 ca         1 P6S      -0.126000
      5 C19         -2.7240    -0.2210     0.1380 c          1 P6S       0.821100
      6 C23          1.6290     1.2430    -0.3160 ca         1 P6S      -0.097500
      7 C25          3.5460     0.0000     0.4380 ca         1 P6S      -0.134000
      8 C27          1.4860    -1.1350    -0.0710 ca         1 P6S      -0.097500
      9 O20         -1.3470    -0.1270     0.3110 os         1 P6S      -0.538100
     10 O28         -3.1670    -0.0870    -1.0100 o          1 P6S      -0.720500
     11 H7          -0.7900     1.0720    -1.2960 h1         1 P6S       0.023200
     12 H8          -0.7330    -0.6620    -1.6000 h1         1 P6S       0.023200
     13 H9           3.5210     2.1290     0.1730 ha         1 P6S       0.094000
     14 H10          3.2640    -2.1220     0.6050 ha         1 P6S       0.094000
     15 H20          1.1730     2.1920    -0.5740 ha         1 P6S       0.113500
     16 H21          4.5770    -0.0290     0.7650 ha         1 P6S       0.091000
     17 H22          0.9200    -2.0570    -0.1440 ha         1 P6S       0.113500
     18 OXT         -3.3230    -0.4320     1.1980 o          1 P6S      -0.720500
@<TRIPOS>BOND
     1     1     2 1   
     2     1     9 1   
     3     1    11 1   
     4     1    12 1   
     5     2     6 ar  
     6     2     8 ar  
     7     3     6 ar  
     8     3     7 ar  
     9     3    13 1   
    10     4     7 ar  
    11     4     8 ar  
    12     4    14 1   
    13     5     9 1   
    14     5    10 1   
    15     5    18 1   
    16     6    15 1   
    17     7    16 1   
    18     8    17 1   
@<TRIPOS>SUBSTRUCTURE
     1 P6S         1 TEMP              0 ****  ****    0 ROOT
