@<TRIPOS>MOLECULE
P6U
   43    45     1     0     0
SMALL
abcg2


@<TRIPOS>ATOM
      1 C1           3.6250     0.7080     1.9020 c3         1 P6U      -0.093100
      2 C2           3.1250     0.2590     0.5180 c6         1 P6U       0.243500
      3 C3           4.0910     0.6840    -0.6000 c6         1 P6U      -0.108400
      4 C4           5.4780     0.0970    -0.4410 c6         1 P6U       0.067600
      5 S1           5.4310    -1.7160    -0.4670 ss         1 P6U      -0.398200
      6 C5           3.8200    -2.0150     0.2210 c2         1 P6U       0.703100
      7 N1           2.9480    -1.1740     0.5840 n2         1 P6U      -0.714900
      8 N2           3.5600    -3.3580     0.2630 nv         1 P6U      -1.008200
      9 C6           1.7520     0.8750     0.2280 ca         1 P6U      -0.126300
     10 C7           0.6520     0.0740    -0.0730 ca         1 P6U      -0.034000
     11 C8          -0.6140     0.5720    -0.3580 ca         1 P6U      -0.159300
     12 C9          -0.7690     1.9480    -0.3280 ca         1 P6U       0.230000
     13 C10          0.2770     2.8000    -0.0470 ca         1 P6U      -0.210000
     14 C11          1.5120     2.2430     0.2250 ca         1 P6U       0.202000
     15 F1           2.5070     3.1090     0.4910 f          1 P6U      -0.181000
     16 F2          -1.9680     2.4810    -0.5970 f          1 P6U      -0.158000
     17 C12         -1.7700    -0.3460    -0.6370 c3         1 P6U       0.237100
     18 N3          -2.6510    -0.3930     0.5180 n7         1 P6U      -0.857400
     19 C13         -3.8820    -1.0970     0.3600 cx         1 P6U       0.052200
     20 C14         -3.9470    -2.4630    -0.2690 cx         1 P6U      -0.122400
     21 C15         -4.1570    -2.3060     1.2010 cx         1 P6U      -0.122400
     22 C16         -5.0260    -0.1530     0.1220 c3         1 P6U       0.339000
     23 F3          -4.8440     0.5860    -0.9830 f          1 P6U      -0.112667
     24 F4          -6.2020    -0.7820    -0.0290 f          1 P6U      -0.112667
     25 F5          -5.1770     0.7080     1.1370 f          1 P6U      -0.112667
     26 H1           3.8670     1.7680     1.9410 hc         1 P6U       0.047700
     27 H3           2.8670     0.5010     2.6590 hc         1 P6U       0.047700
     28 H2           4.5210     0.1530     2.1800 hc         1 P6U       0.047700
     29 H5           3.6760     0.3860    -1.5660 hc         1 P6U       0.071200
     30 H4           4.1930     1.7690    -0.6180 hc         1 P6U       0.071200
     31 H6           6.1120     0.3880    -1.2770 h1         1 P6U       0.077200
     32 H9           4.3390    -3.9810     0.4060 hn         1 P6U       0.468500
     33 H8           2.7480    -3.6080     0.8070 hn         1 P6U       0.468500
     34 H10          0.7950    -0.9980    -0.0760 ha         1 P6U       0.140000
     35 H11          0.1400     3.8740    -0.0380 ha         1 P6U       0.151000
     36 H13         -2.3320     0.0120    -1.4990 h1         1 P6U       0.048200
     37 H12         -1.3720    -1.3310    -0.9150 h1         1 P6U       0.048200
     38 H14         -2.1500    -0.7130     1.3350 hn         1 P6U       0.440000
     39 H15         -4.7930    -2.7260    -0.8910 hc         1 P6U       0.087200
     40 H16         -3.0080    -2.8820    -0.6060 hc         1 P6U       0.087200
     41 H17         -3.3590    -2.6110     1.8660 hc         1 P6U       0.087200
     42 H18         -5.1490    -2.4590     1.6060 hc         1 P6U       0.087200
     43 H7           5.9630     0.4360     0.4730 h1         1 P6U       0.077200
@<TRIPOS>BOND
     1     1     2 1   
     2     1    26 1   
     3     1    27 1   
     4     1    28 1   
     5     2     3 1   
     6     2     7 1   
     7     2     9 1   
     8     3     4 1   
     9     3    29 1   
    10     3    30 1   
    11     4     5 1   
    12     4    31 1   
    13     4    43 1   
    14     5     6 1   
    15     6     7 2   
    16     6     8 1   
    17     8    32 1   
    18     8    33 1   
    19     9    10 ar  
    20     9    14 ar  
    21    10    11 ar  
    22    10    34 1   
    23    11    12 ar  
    24    11    17 1   
    25    12    13 ar  
    26    12    16 1   
    27    13    14 ar  
    28    13    35 1   
    29    14    15 1   
    30    17    18 1   
    31    17    36 1   
    32    17    37 1   
    33    18    19 1   
    34    18    38 1   
    35    19    20 1   
    36    19    21 1   
    37    19    22 1   
    38    20    21 1   
    39    20    39 1   
    40    20    40 1   
    41    21    41 1   
    42    21    42 1   
    43    22    23 1   
    44    22    24 1   
    45    22    25 1   
@<TRIPOS>SUBSTRUCTURE
     1 P6U         1 TEMP              0 ****  ****    0 ROOT
