@<TRIPOS>MOLECULE
P6U
   43    45     1     0     0
SMALL
No Charge or Current Charge


@<TRIPOS>ATOM
      1 C1           3.6470     0.6170     1.8890 c3         1 P6U      -0.093100
      2 C2           3.0390     0.2250     0.5020 c6         1 P6U       0.243500
      3 C3           4.0080     0.5790    -0.6680 c6         1 P6U      -0.108400
      4 C4           5.3610    -0.1410    -0.5680 c6         1 P6U       0.067600
      5 S1           5.1360    -1.9580    -0.6020 ss         1 P6U      -0.398200
      6 C5           3.5790    -2.1390     0.2220 c2         1 P6U       0.703100
      7 N1           2.7840    -1.2320     0.6280 n2         1 P6U      -0.714900
      8 N2           3.2990    -3.4440     0.3790 nv         1 P6U      -1.008200
      9 C6           1.6900     0.9830     0.2710 ca         1 P6U      -0.126300
     10 C7           0.5090     0.2800    -0.0920 ca         1 P6U      -0.034000
     11 C8          -0.7110     0.9510    -0.3120 ca         1 P6U      -0.159300
     12 C9          -0.7630     2.3480    -0.1810 ca         1 P6U       0.230000
     13 C10          0.3870     3.0660     0.1550 ca         1 P6U      -0.210000
     14 C11          1.5990     2.3980     0.3740 ca         1 P6U       0.202000
     15 F1           2.6780     3.1560     0.6670 f          1 P6U      -0.181000
     16 F2          -1.9180     3.0200    -0.3910 f          1 P6U      -0.158000
     17 C12         -1.9500     0.1560    -0.6930 c3         1 P6U       0.237100
     18 N3          -2.6260    -0.3220     0.5280 n7         1 P6U      -0.857400
     19 C13         -3.7890    -1.1900     0.3340 cx         1 P6U       0.052200
     20 C14         -3.4650    -2.6240    -0.0350 cx         1 P6U      -0.122400
     21 C15         -3.9000    -2.2910     1.3720 cx         1 P6U      -0.122400
     22 C16         -5.0890    -0.5320    -0.2260 c3         1 P6U       0.339000
     23 F3          -4.9370    -0.1660    -1.5210 f          1 P6U      -0.112667
     24 F4          -6.1500    -1.3730    -0.1750 f          1 P6U      -0.112667
     25 F5          -5.4190     0.5750     0.4790 f          1 P6U      -0.112667
     26 H1           4.0900     1.6180     1.8890 hc         1 P6U       0.047700
     27 H3           2.8820     0.5910     2.6740 hc         1 P6U       0.047700
     28 H2           4.4440    -0.0710     2.1950 hc         1 P6U       0.047700
     29 H5           3.5330     0.3240    -1.6250 hc         1 P6U       0.071200
     30 H4           4.1910     1.6600    -0.7020 hc         1 P6U       0.071200
     31 H6           6.0130     0.1450    -1.4050 h1         1 P6U       0.077200
     32 H9           4.1280    -4.0220     0.4020 hn         1 P6U       0.468500
     33 H8           2.6350    -3.6090     1.1230 hn         1 P6U       0.468500
     34 H10          0.5200    -0.8000    -0.2140 ha         1 P6U       0.140000
     35 H11          0.3420     4.1470     0.2410 ha         1 P6U       0.151000
     36 H13         -2.6180     0.7850    -1.2960 h1         1 P6U       0.048200
     37 H12         -1.6470    -0.6910    -1.3240 h1         1 P6U       0.048200
     38 H14         -1.9240    -0.8200     1.0860 hn         1 P6U       0.440000
     39 H15         -4.1680    -3.1610    -0.6680 hc         1 P6U       0.087200
     40 H16         -2.4240    -2.8970    -0.1920 hc         1 P6U       0.087200
     41 H17         -3.1500    -2.3400     2.1570 hc         1 P6U       0.087200
     42 H18         -4.8900    -2.6140     1.6840 hc         1 P6U       0.087200
     43 H7           5.8740     0.1310     0.3650 h1         1 P6U       0.077200
@<TRIPOS>BOND
     1     1     2 1   
     2     1    26 1   
     3     1    27 1   
     4     1    28 1   
     5     2     3 1   
     6     2     7 1   
     7     2     9 1   
     8     3     4 1   
     9     3    29 1   
    10     3    30 1   
    11     4     5 1   
    12     4    31 1   
    13     4    43 1   
    14     5     6 1   
    15     6     7 2   
    16     6     8 1   
    17     8    32 1   
    18     8    33 1   
    19     9    10 ar  
    20     9    14 ar  
    21    10    11 ar  
    22    10    34 1   
    23    11    12 ar  
    24    11    17 1   
    25    12    13 ar  
    26    12    16 1   
    27    13    14 ar  
    28    13    35 1   
    29    14    15 1   
    30    17    18 1   
    31    17    36 1   
    32    17    37 1   
    33    18    19 1   
    34    18    38 1   
    35    19    20 1   
    36    19    21 1   
    37    19    22 1   
    38    20    21 1   
    39    20    39 1   
    40    20    40 1   
    41    21    41 1   
    42    21    42 1   
    43    22    23 1   
    44    22    24 1   
    45    22    25 1   
@<TRIPOS>SUBSTRUCTURE
     1 P6U         1 TEMP              0 ****  ****    0 ROOT
