@<TRIPOS>MOLECULE
P6V
   22    22     1     0     0
SMALL
bcc


@<TRIPOS>ATOM
      1 C02         -2.0990     0.2410     0.2830 c          1 P6V       0.676700
      2 C03         -0.6340     0.0210     0.1210 ca         1 P6V      -0.161600
      3 C04          0.2210     1.1040     0.3050 ca         1 P6V      -0.089500
      4 C05          1.5930     0.9520     0.1730 ca         1 P6V      -0.130500
      5 C06          2.1470    -0.2890    -0.1240 ca         1 P6V      -0.060300
      6 C07          3.6320    -0.4850    -0.2910 c3         1 P6V       0.194100
      7 C32          1.2880    -1.3760    -0.2810 ca         1 P6V      -0.130500
      8 C33         -0.0840    -1.2270    -0.1680 ca         1 P6V      -0.089500
      9 N08          4.4090     0.6060     0.2630 n8         1 P6V      -0.889800
     10 N34         -2.8690    -0.6240    -0.4160 ns         1 P6V      -0.443400
     11 O01         -2.5540     1.1130     1.0010 o          1 P6V      -0.560100
     12 O35         -4.2150    -0.4130    -0.4590 oh         1 P6V      -0.395100
     13 H11         -0.1870     2.0770     0.5460 ha         1 P6V       0.142000
     14 H12          2.2430     1.8060     0.3090 ha         1 P6V       0.143500
     15 H13          3.8960    -1.4710     0.1150 h1         1 P6V       0.038700
     16 H14          3.8460    -0.5420    -1.3630 h1         1 P6V       0.038700
     17 H26          1.6970    -2.3580    -0.4890 ha         1 P6V       0.143500
     18 H27         -0.7140    -2.1010    -0.2750 ha         1 P6V       0.142000
     19 H28          4.3880     0.5600     1.2740 hn         1 P6V       0.344300
     20 H31         -2.5070    -1.1070    -1.2270 hn         1 P6V       0.330500
     21 H32         -4.6040    -1.0720     0.1300 ho         1 P6V       0.410000
     22 H2           5.3780     0.4930    -0.0030 hn         1 P6V       0.344300
@<TRIPOS>BOND
     1     1     2 1   
     2     1    10 1   
     3     1    11 2   
     4     2     3 ar  
     5     2     8 ar  
     6     3     4 ar  
     7     3    13 1   
     8     4     5 ar  
     9     4    14 1   
    10     5     6 1   
    11     5     7 ar  
    12     6     9 1   
    13     6    15 1   
    14     6    16 1   
    15     7     8 ar  
    16     7    17 1   
    17     8    18 1   
    18     9    19 1   
    19     9    22 1   
    20    10    12 1   
    21    10    20 1   
    22    12    21 1   
@<TRIPOS>SUBSTRUCTURE
     1 P6V         1 TEMP              0 ****  ****    0 ROOT
