@<TRIPOS>MOLECULE
P6V
   22    22     1     0     0
SMALL
No Charge or Current Charge


@<TRIPOS>ATOM
      1 C02         -2.1390     0.3490     0.0650 c          1 P6V       0.609700
      2 C03         -0.6350     0.1890    -0.0600 ca         1 P6V      -0.161600
      3 C04          0.1870     1.3390    -0.0640 ca         1 P6V      -0.071500
      4 C05          1.5840     1.2270    -0.1780 ca         1 P6V      -0.112500
      5 C06          2.1920    -0.0360    -0.2890 ca         1 P6V      -0.060300
      6 C07          3.7060    -0.1540    -0.4190 c3         1 P6V       0.194100
      7 C32          1.3830    -1.1870    -0.2830 ca         1 P6V      -0.112500
      8 C33         -0.0150    -1.0800    -0.1690 ca         1 P6V      -0.071500
      9 N08          4.3710    -0.1460     0.8990 n8         1 P6V      -1.000200
     10 N34         -2.9000    -0.8170     0.0010 ns         1 P6V      -0.376400
     11 O01         -2.6640     1.4450     0.2270 o          1 P6V      -0.560100
     12 O35         -4.3420    -0.7640    -0.1390 oh         1 P6V      -0.434100
     13 H11         -0.2540     2.3310     0.0200 ha         1 P6V       0.124000
     14 H12          2.1960     2.1260    -0.1780 ha         1 P6V       0.125500
     15 H13          3.9610    -1.0890    -0.9390 h1         1 P6V       0.038700
     16 H14          4.0930     0.6830    -1.0170 h1         1 P6V       0.038700
     17 H26          1.8390    -2.1710    -0.3650 ha         1 P6V       0.125500
     18 H27         -0.5980    -1.9980    -0.1630 ha         1 P6V       0.124000
     19 H28          4.0500    -0.9620     1.4330 hn         1 P6V       0.399500
     20 H31         -2.4550    -1.6840    -0.2900 hn         1 P6V       0.330500
     21 H32         -4.6660    -1.3730     0.5660 ho         1 P6V       0.449000
     22 H2           5.3740    -0.3200     0.7670 hn         1 P6V       0.399500
@<TRIPOS>BOND
     1     1     2 1   
     2     1    10 1   
     3     1    11 2   
     4     2     3 ar  
     5     2     8 ar  
     6     3     4 ar  
     7     3    13 1   
     8     4     5 ar  
     9     4    14 1   
    10     5     6 1   
    11     5     7 ar  
    12     6     9 1   
    13     6    15 1   
    14     6    16 1   
    15     7     8 ar  
    16     7    17 1   
    17     8    18 1   
    18     9    19 1   
    19     9    22 1   
    20    10    12 1   
    21    10    20 1   
    22    12    21 1   
@<TRIPOS>SUBSTRUCTURE
     1 P6V         1 TEMP              0 ****  ****    0 ROOT
