@<TRIPOS>MOLECULE
P6W
   19    18     1     0     0
SMALL
No Charge or Current Charge


@<TRIPOS>ATOM
      1 C01        -23.1340    29.2620   -24.8250 c3         1 P6W      -0.055400
      2 C02        -22.1910    28.0310   -24.8740 c3         1 P6W      -0.165400
      3 C03        -20.7200    28.4110   -25.0740 c          1 P6W       0.599600
      4 C06        -23.1710    30.1180   -26.1190 c3         1 P6W      -0.165400
      5 C07        -23.6850    29.3410   -27.3360 c          1 P6W       0.599600
      6 N05        -20.1630    28.0410   -26.2460 nt         1 P6W      -0.614500
      7 N09        -22.7890    29.1080   -28.3170 nt         1 P6W      -0.614500
      8 O04        -20.0550    28.9850   -24.2290 o          1 P6W      -0.607600
      9 O08        -24.8400    28.9700   -27.4540 o          1 P6W      -0.607600
     10 H1         -22.8350    29.9050   -23.9870 hc         1 P6W       0.065200
     11 H2         -24.1510    28.9180   -24.5980 hc         1 P6W       0.065200
     12 H3         -22.2750    27.5070   -23.9140 hc         1 P6W       0.063700
     13 H4         -22.5200    27.3560   -25.6730 hc         1 P6W       0.063700
     14 H5         -22.1680    30.5130   -26.3190 hc         1 P6W       0.063700
     15 H6         -23.8520    30.9590   -25.9440 hc         1 P6W       0.063700
     16 H7         -19.1900    28.2490   -26.4170 hn         1 P6W       0.311750
     17 H8         -20.7060    27.5310   -26.9270 hn         1 P6W       0.311750
     18 H9         -23.0860    28.6190   -29.1500 hn         1 P6W       0.311750
     19 H10        -21.8440    29.4510   -28.2330 hn         1 P6W       0.311750
@<TRIPOS>BOND
     1     1     2 1   
     2     1     4 1   
     3     1    10 1   
     4     1    11 1   
     5     2     3 1   
     6     2    12 1   
     7     2    13 1   
     8     3     6 1   
     9     3     8 2   
    10     4     5 1   
    11     4    14 1   
    12     4    15 1   
    13     5     7 1   
    14     5     9 2   
    15     6    16 1   
    16     6    17 1   
    17     7    18 1   
    18     7    19 1   
@<TRIPOS>SUBSTRUCTURE
     1 P6W         1 TEMP              0 ****  ****    0 ROOT
