@<TRIPOS>MOLECULE
P6W
   19    18     1     0     0
SMALL
abcg2


@<TRIPOS>ATOM
      1 C01        -23.1290    29.2640   -24.8280 c3         1 P6W      -0.055400
      2 C02        -22.2150    28.0410   -24.8960 c3         1 P6W      -0.165400
      3 C03        -20.7660    28.4320   -25.0960 c          1 P6W       0.599600
      4 C06        -23.1270    30.0960   -26.1090 c3         1 P6W      -0.165400
      5 C07        -23.6350    29.3000   -27.2930 c          1 P6W       0.599600
      6 N05        -20.1870    27.9590   -26.2090 nt         1 P6W      -0.614500
      7 N09        -22.7930    29.2040   -28.3320 nt         1 P6W      -0.614500
      8 O04        -20.1780    29.1430   -24.2920 o          1 P6W      -0.607600
      9 O08        -24.7390    28.7720   -27.2820 o          1 P6W      -0.607600
     10 H1         -22.8280    29.8990   -23.9940 hc         1 P6W       0.065200
     11 H2         -24.1450    28.9310   -24.6130 hc         1 P6W       0.065200
     12 H3         -22.2810    27.4940   -23.9530 hc         1 P6W       0.063700
     13 H4         -22.5550    27.3530   -25.6730 hc         1 P6W       0.063700
     14 H5         -22.1330    30.5080   -26.3010 hc         1 P6W       0.063700
     15 H6         -23.7930    30.9530   -25.9780 hc         1 P6W       0.063700
     16 H7         -19.2270    28.1760   -26.4220 hn         1 P6W       0.311750
     17 H8         -20.6930    27.3990   -26.8730 hn         1 P6W       0.311750
     18 H9         -23.0570    28.6990   -29.1630 hn         1 P6W       0.311750
     19 H10        -21.8930    29.6520   -28.3290 hn         1 P6W       0.311750
@<TRIPOS>BOND
     1     1     2 1   
     2     1     4 1   
     3     1    10 1   
     4     1    11 1   
     5     2     3 1   
     6     2    12 1   
     7     2    13 1   
     8     3     6 1   
     9     3     8 2   
    10     4     5 1   
    11     4    14 1   
    12     4    15 1   
    13     5     7 1   
    14     5     9 2   
    15     6    16 1   
    16     6    17 1   
    17     7    18 1   
    18     7    19 1   
@<TRIPOS>SUBSTRUCTURE
     1 P6W         1 TEMP              0 ****  ****    0 ROOT
