@<TRIPOS>MOLECULE
P6X
   24    25     1     0     0
SMALL
No Charge or Current Charge


@<TRIPOS>ATOM
      1 C16          5.3120     7.4590    15.1270 ca         1 P6X       0.210900
      2 C1           7.0950     6.9170    19.8020 ca         1 P6X      -0.070300
      3 C2           8.4850     6.8210    19.1860 c3         1 P6X       0.093900
      4 C3           6.7660     8.0020    20.6380 ca         1 P6X      -0.084000
      5 C4           6.1230     5.9360    19.5260 ca         1 P6X      -0.085000
      6 S5           8.7170     8.1330    17.9050 ss         1 P6X      -0.284300
      7 C6           5.4790     8.1080    21.1920 ca         1 P6X       0.124000
      8 C7           4.8350     6.0390    20.0790 ca         1 P6X      -0.101000
      9 C8           7.3650     7.8320    16.7800 ca         1 P6X       0.205300
     10 C9           4.5090     7.1230    20.9120 ca         1 P6X       0.127000
     11 Cl10         5.1050     9.4850    22.2300 cl         1 P6X      -0.173000
     12 N11          7.2380     6.5860    16.2720 nb         1 P6X      -0.264000
     13 N12          6.5400     8.8710    16.5040 nb         1 P6X      -0.098000
     14 Cl13         2.8820     7.2250    21.5880 cl         1 P6X      -0.175000
     15 C14          6.1980     6.4000    15.4360 ca         1 P6X       0.328300
     16 N15          5.4980     8.6870    15.6670 nb         1 P6X      -0.250000
     17 O17          6.0430     5.1510    14.9060 oh         1 P6X      -0.621300
     18 H23          4.4670     7.3260    14.4540 h4         1 P6X       0.055100
     19 H18          9.2480     6.9420    19.9660 h1         1 P6X       0.088200
     20 H19          8.6300     5.8370    18.7220 h1         1 P6X       0.088200
     21 H20          7.5060     8.7680    20.8540 ha         1 P6X       0.140000
     22 H21          6.3620     5.0940    18.8780 ha         1 P6X       0.120000
     23 H22          4.0870     5.2800    19.8610 ha         1 P6X       0.132000
     24 H24          6.7810     4.6040    15.2530 ho         1 P6X       0.492000
@<TRIPOS>BOND
     1     1    15 ar  
     2     1    16 ar  
     3     1    18 1   
     4     2     3 1   
     5     2     4 ar  
     6     2     5 ar  
     7     3     6 1   
     8     3    19 1   
     9     3    20 1   
    10     4     7 ar  
    11     4    21 1   
    12     5     8 ar  
    13     5    22 1   
    14     6     9 1   
    15     7    10 ar  
    16     7    11 1   
    17     8    10 ar  
    18     8    23 1   
    19     9    12 ar  
    20     9    13 ar  
    21    10    14 1   
    22    12    15 ar  
    23    13    16 ar  
    24    15    17 1   
    25    17    24 1   
@<TRIPOS>SUBSTRUCTURE
     1 P6X         1 TEMP              0 ****  ****    0 ROOT
