@<TRIPOS>MOLECULE
P6X
   24    25     1     0     0
SMALL
abcg2


@<TRIPOS>ATOM
      1 C16          5.8230     7.5930    14.6120 ca         1 P6X       0.210900
      2 C1           7.0220     6.9050    19.7820 ca         1 P6X      -0.070300
      3 C2           8.3400     6.9650    19.0610 c3         1 P6X       0.093900
      4 C3           6.6180     7.9500    20.6090 ca         1 P6X      -0.084000
      5 C4           6.1940     5.7930    19.6490 ca         1 P6X      -0.085000
      6 S5           8.5270     8.3980    17.9410 ss         1 P6X      -0.284300
      7 C6           5.4080     7.8890    21.2850 ca         1 P6X       0.124000
      8 C7           4.9860     5.7230    20.3270 ca         1 P6X      -0.101000
      9 C8           7.4170     8.0000    16.6400 ca         1 P6X       0.205300
     10 C9           4.5850     6.7700    21.1460 ca         1 P6X       0.127000
     11 CL10         4.9480     9.2260    22.3000 cl         1 P6X      -0.173000
     12 N11          6.8050     6.8130    16.6200 nb         1 P6X      -0.264000
     13 N12          7.2820     8.9670    15.7300 nb         1 P6X      -0.098000
     14 CL13         3.0610     6.6600    21.9770 cl         1 P6X      -0.175000
     15 C14          5.9920     6.6100    15.6080 ca         1 P6X       0.328300
     16 N15          6.4720     8.7350    14.6970 nb         1 P6X      -0.250000
     17 O17          5.3200     5.4690    15.5120 oh         1 P6X      -0.621300
     18 H23          5.1680     7.4420    13.7650 h4         1 P6X       0.055100
     19 H18          9.1650     7.1020    19.7620 h1         1 P6X       0.088200
     20 H19          8.5190     6.0560    18.4930 h1         1 P6X       0.088200
     21 H20          7.2420     8.8260    20.7270 ha         1 P6X       0.140000
     22 H21          6.4910     4.9760    19.0050 ha         1 P6X       0.120000
     23 H22          4.3450     4.8590    20.2180 ha         1 P6X       0.132000
     24 H24          5.5420     4.9010    16.2700 ho         1 P6X       0.492000
@<TRIPOS>BOND
     1     1    15 ar  
     2     1    16 ar  
     3     1    18 1   
     4     2     3 1   
     5     2     4 ar  
     6     2     5 ar  
     7     3     6 1   
     8     3    19 1   
     9     3    20 1   
    10     4     7 ar  
    11     4    21 1   
    12     5     8 ar  
    13     5    22 1   
    14     6     9 1   
    15     7    10 ar  
    16     7    11 1   
    17     8    10 ar  
    18     8    23 1   
    19     9    12 ar  
    20     9    13 ar  
    21    10    14 1   
    22    12    15 ar  
    23    13    16 ar  
    24    15    17 1   
    25    17    24 1   
@<TRIPOS>SUBSTRUCTURE
     1 P6X         1 TEMP              0 ****  ****    0 ROOT
