@<TRIPOS>MOLECULE
P6Y
   36    37     1     0     0
SMALL
bcc


@<TRIPOS>ATOM
      1 C13         -2.3890     0.7050     0.3210 ca         1 P6Y      -0.223900
      2 C15         -2.5900     3.0930     0.3250 ca         1 P6Y      -0.224300
      3 C24          4.0510    -0.8480    -1.0680 ca         1 P6Y      -0.089500
      4 C05          4.3460    -0.1080     0.0730 ca         1 P6Y      -0.152600
      5 C06          3.3490     0.0940     1.0270 ca         1 P6Y      -0.089500
      6 C07          2.0780    -0.4100     0.8270 ca         1 P6Y      -0.126500
      7 C08          1.7750    -1.1430    -0.3190 ca         1 P6Y      -0.091300
      8 C09          0.3890    -1.6980    -0.5270 c3         1 P6Y       0.141300
      9 C11         -1.5260    -0.5140     0.4690 c          1 P6Y       0.684700
     10 C14         -1.7940     1.9620     0.3460 ca         1 P6Y      -0.079000
     11 C16         -3.9650     2.9280     0.2740 ca         1 P6Y       0.420200
     12 C18         -3.7790     0.6600     0.2530 ca         1 P6Y       0.346600
     13 C19         -4.5300    -0.6490     0.1890 c3         1 P6Y       0.633600
     14 C23          2.7750    -1.3590    -1.2590 ca         1 P6Y      -0.126500
     15 F20         -4.7300    -1.1620     1.4070 f          1 P6Y      -0.221300
     16 F21         -5.7240    -0.5000    -0.3770 f          1 P6Y      -0.221300
     17 F22         -3.8650    -1.5630    -0.5280 f          1 P6Y      -0.221300
     18 N03          6.4230     0.7220    -0.7670 ns         1 P6Y      -0.441400
     19 N10         -0.6190    -0.6620    -0.5060 ns         1 P6Y      -0.564900
     20 N17         -4.5430     1.7360     0.2290 nb         1 P6Y      -0.631000
     21 O01          6.1210     0.6270     1.4740 o          1 P6Y      -0.554100
     22 O04          7.6100     1.3790    -0.6300 oh         1 P6Y      -0.394100
     23 O12         -1.6460    -1.2500     1.4330 o          1 P6Y      -0.567100
     24 H1          -2.1550     4.0820     0.3500 ha         1 P6Y       0.153000
     25 H2           4.8120    -1.0540    -1.8100 ha         1 P6Y       0.146000
     26 H3           3.5700     0.6530     1.9270 ha         1 P6Y       0.146000
     27 H4           1.3170    -0.2390     1.5790 ha         1 P6Y       0.140500
     28 H5           0.3370    -2.2260    -1.4800 h1         1 P6Y       0.072700
     29 H6           0.1520    -2.4210     0.2530 h1         1 P6Y       0.072700
     30 H7          -0.7160     2.0540     0.3950 ha         1 P6Y       0.149000
     31 H8          -4.6250     3.7870     0.2640 h4         1 P6Y       0.034100
     32 H9           2.5600    -1.9380    -2.1490 ha         1 P6Y       0.140500
     33 H10          5.9710     0.8820    -1.6570 hn         1 P6Y       0.330500
     34 H11         -0.6240    -0.0120    -1.2770 hn         1 P6Y       0.319500
     35 H12          8.2970     0.7110    -0.7460 ho         1 P6Y       0.412000
     36 C02          5.7020     0.4530     0.3450 c          1 P6Y       0.673700
@<TRIPOS>BOND
     1     1     9 1   
     2     1    10 ar  
     3     1    12 ar  
     4     2    10 ar  
     5     2    11 ar  
     6     2    24 1   
     7     3     4 ar  
     8     3    14 ar  
     9     3    25 1   
    10     4     5 ar  
    11     4    36 1   
    12     5     6 ar  
    13     5    26 1   
    14     6     7 ar  
    15     6    27 1   
    16     7     8 1   
    17     7    14 ar  
    18     8    19 1   
    19     8    28 1   
    20     8    29 1   
    21     9    19 1   
    22     9    23 2   
    23    10    30 1   
    24    11    20 ar  
    25    11    31 1   
    26    12    13 1   
    27    12    20 ar  
    28    13    15 1   
    29    13    16 1   
    30    13    17 1   
    31    14    32 1   
    32    18    22 1   
    33    18    33 1   
    34    18    36 1   
    35    19    34 1   
    36    21    36 2   
    37    22    35 1   
@<TRIPOS>SUBSTRUCTURE
     1 P6Y         1 TEMP              0 ****  ****    0 ROOT
