@<TRIPOS>MOLECULE
P6Y
   36    37     1     0     0
SMALL
No Charge or Current Charge


@<TRIPOS>ATOM
      1 C13         -2.6510     0.6300     0.2860 ca         1 P6Y      -0.158600
      2 C15         -2.8610     3.0350     0.5660 ca         1 P6Y      -0.141000
      3 C24          3.8550    -0.5910    -1.0300 ca         1 P6Y      -0.071500
      4 C05          4.5710    -0.0650     0.0750 ca         1 P6Y      -0.152600
      5 C06          3.9320    -0.0380     1.3360 ca         1 P6Y      -0.071500
      6 C07          2.6200    -0.5180     1.4910 ca         1 P6Y      -0.108500
      7 C08          1.9180    -1.0380     0.3900 ca         1 P6Y      -0.091300
      8 C09          0.4970    -1.5500     0.5570 c3         1 P6Y       0.141300
      9 C11         -1.8370    -0.6310     0.4610 c          1 P6Y       0.617700
     10 C14         -2.0990     1.8670     0.7000 ca         1 P6Y      -0.061000
     11 C16         -4.1470     2.9490     0.0270 ca         1 P6Y       0.354900
     12 C18         -3.9680     0.6290    -0.2660 ca         1 P6Y       0.281300
     13 C19         -4.6680    -0.6420    -0.8260 c3         1 P6Y       0.269700
     14 C23          2.5430    -1.0700    -0.8700 ca         1 P6Y      -0.108500
     15 F20         -5.0850    -1.4700     0.1600 f          1 P6Y      -0.100000
     16 F21         -5.7700    -0.3560    -1.5630 f          1 P6Y      -0.100000
     17 F22         -3.8590    -1.3580    -1.6430 f          1 P6Y      -0.100000
     18 N03          6.5410     0.4670    -1.3330 ns         1 P6Y      -0.374400
     19 N10         -0.4730    -0.4730     0.3720 ns         1 P6Y      -0.497900
     20 N17         -4.6880     1.7820    -0.3810 nb         1 P6Y      -0.631000
     21 O01          6.6260     0.8520     0.9180 o          1 P6Y      -0.554100
     22 O04          7.7800     1.1680    -1.6100 oh         1 P6Y      -0.433100
     23 O12         -2.3220    -1.7160     0.7380 o          1 P6Y      -0.567100
     24 H1          -2.4680     3.9970     0.8840 ha         1 P6Y       0.135000
     25 H2           4.3000    -0.6420    -2.0200 ha         1 P6Y       0.128000
     26 H3           4.4510     0.3590     2.2060 ha         1 P6Y       0.128000
     27 H4           2.1490    -0.4830     2.4710 ha         1 P6Y       0.122500
     28 H5           0.2970    -2.3440    -0.1760 h1         1 P6Y       0.072700
     29 H6           0.3710    -1.9780     1.5610 h1         1 P6Y       0.072700
     30 H7          -1.1090     1.9310     1.1480 ha         1 P6Y       0.131000
     31 H8          -4.7650     3.8400    -0.0850 h4         1 P6Y       0.034100
     32 H9           2.0100    -1.4670    -1.7310 ha         1 P6Y       0.122500
     33 H10          5.9410     0.2890    -2.1350 hn         1 P6Y       0.330500
     34 H11         -0.1270     0.4470     0.1280 hn         1 P6Y       0.319500
     35 H12          8.3230     0.4990    -2.0910 ho         1 P6Y       0.451000
     36 C02          5.9890     0.4620    -0.0540 c          1 P6Y       0.606700
@<TRIPOS>BOND
     1     1     9 1   
     2     1    10 ar  
     3     1    12 ar  
     4     2    10 ar  
     5     2    11 ar  
     6     2    24 1   
     7     3     4 ar  
     8     3    14 ar  
     9     3    25 1   
    10     4     5 ar  
    11     4    36 1   
    12     5     6 ar  
    13     5    26 1   
    14     6     7 ar  
    15     6    27 1   
    16     7     8 1   
    17     7    14 ar  
    18     8    19 1   
    19     8    28 1   
    20     8    29 1   
    21     9    19 1   
    22     9    23 2   
    23    10    30 1   
    24    11    20 ar  
    25    11    31 1   
    26    12    13 1   
    27    12    20 ar  
    28    13    15 1   
    29    13    16 1   
    30    13    17 1   
    31    14    32 1   
    32    18    22 1   
    33    18    33 1   
    34    18    36 1   
    35    19    34 1   
    36    21    36 2   
    37    22    35 1   
@<TRIPOS>SUBSTRUCTURE
     1 P6Y         1 TEMP              0 ****  ****    0 ROOT
