@<TRIPOS>MOLECULE
P6Z
   21    22     1     0     0
SMALL
No Charge or Current Charge


@<TRIPOS>ATOM
      1 C01        -19.6920   -21.6120     4.1030 c          1 P6Z       0.583500
      2 C02        -18.5770   -21.4020     3.1130 ca         1 P6Z      -0.183600
      3 C03        -18.6680   -20.3610     2.1640 ca         1 P6Z      -0.081000
      4 C04        -17.6340   -20.1430     1.2280 ca         1 P6Z      -0.004200
      5 C06        -18.8980   -18.6920    -0.3040 cc         1 P6Z      -0.223000
      6 C07        -18.4960   -17.6640    -1.1240 cd         1 P6Z       0.235900
      7 C09        -16.6770   -18.3490    -0.1580 cc         1 P6Z       0.403400
      8 C10        -16.5010   -20.9820     1.2500 ca         1 P6Z      -0.094000
      9 C11        -16.4050   -22.0210     2.1920 ca         1 P6Z      -0.106000
     10 C12        -17.4370   -22.2320     3.1200 ca         1 P6Z      -0.054000
     11 N05        -17.7320   -19.1070     0.2930 na         1 P6Z      -0.080300
     12 N08        -17.1270   -17.4540    -1.0310 nd         1 P6Z      -0.666000
     13 H1         -20.5520   -20.9100     4.0240 h4         1 P6Z      -0.006800
     14 H4         -19.5430   -19.7130     2.1640 ha         1 P6Z       0.129000
     15 H5         -19.8710   -19.1310    -0.1280 h4         1 P6Z       0.159000
     16 H6         -19.1170   -17.0640    -1.7780 h4         1 P6Z       0.041100
     17 H7         -15.6550   -18.4830     0.1780 h5         1 P6Z       0.058100
     18 H8         -15.6950   -20.8440     0.5330 ha         1 P6Z       0.129000
     19 H9         -15.5290   -22.6660     2.2000 ha         1 P6Z       0.127000
     20 H10        -17.3470   -23.0410     3.8440 ha         1 P6Z       0.140000
     21 O1         -19.6810   -22.4940     4.9560 o          1 P6Z      -0.506100
@<TRIPOS>BOND
     1     1     2 1   
     2     1    13 1   
     3     1    21 2   
     4     2     3 ar  
     5     2    10 ar  
     6     3     4 ar  
     7     3    14 1   
     8     4     8 ar  
     9     4    11 1   
    10     5     6 2   
    11     5    11 1   
    12     5    15 1   
    13     6    12 1   
    14     6    16 1   
    15     7    11 1   
    16     7    12 2   
    17     7    17 1   
    18     8     9 ar  
    19     8    18 1   
    20     9    10 ar  
    21     9    19 1   
    22    10    20 1   
@<TRIPOS>SUBSTRUCTURE
     1 P6Z         1 TEMP              0 ****  ****    0 ROOT
