@<TRIPOS>MOLECULE
P6Z
   21    22     1     0     0
SMALL
abcg2


@<TRIPOS>ATOM
      1 C01        -19.6510   -21.5900     4.0690 c          1 P6Z       0.583500
      2 C02        -18.5530   -21.4060     3.1030 ca         1 P6Z      -0.183600
      3 C03        -18.6560   -20.3710     2.1810 ca         1 P6Z      -0.081000
      4 C04        -17.6420   -20.1700     1.2550 ca         1 P6Z      -0.004200
      5 C06        -18.8830   -18.6950    -0.3180 cc         1 P6Z      -0.223000
      6 C07        -18.4860   -17.6680    -1.1190 cd         1 P6Z       0.235900
      7 C09        -16.7260   -18.3420    -0.1310 cc         1 P6Z       0.403400
      8 C10        -16.5280   -21.0010     1.2560 ca         1 P6Z      -0.094000
      9 C11        -16.4220   -22.0200     2.1940 ca         1 P6Z      -0.106000
     10 C12        -17.4310   -22.2320     3.1160 ca         1 P6Z      -0.054000
     11 N05        -17.7420   -19.1270     0.3140 na         1 P6Z      -0.080300
     12 N08        -17.1400   -17.4560    -0.9910 nd         1 P6Z      -0.666000
     13 H1         -20.4850   -20.8760     3.9580 h4         1 P6Z      -0.006800
     14 H4         -19.5190   -19.7160     2.2020 ha         1 P6Z       0.129000
     15 H5         -19.8410   -19.1610    -0.1640 h4         1 P6Z       0.159000
     16 H6         -19.0970   -17.0790    -1.7850 h4         1 P6Z       0.041100
     17 H7         -15.7140   -18.4540     0.2300 h5         1 P6Z       0.058100
     18 H8         -15.7480   -20.8660     0.5180 ha         1 P6Z       0.129000
     19 H9         -15.5490   -22.6580     2.1880 ha         1 P6Z       0.127000
     20 H10        -17.3520   -23.0340     3.8380 ha         1 P6Z       0.140000
     21 O1         -19.6690   -22.4420     4.9240 o          1 P6Z      -0.506100
@<TRIPOS>BOND
     1     1     2 1   
     2     1    13 1   
     3     1    21 2   
     4     2     3 ar  
     5     2    10 ar  
     6     3     4 ar  
     7     3    14 1   
     8     4     8 ar  
     9     4    11 1   
    10     5     6 2   
    11     5    11 1   
    12     5    15 1   
    13     6    12 1   
    14     6    16 1   
    15     7    11 1   
    16     7    12 2   
    17     7    17 1   
    18     8     9 ar  
    19     8    18 1   
    20     9    10 ar  
    21     9    19 1   
    22    10    20 1   
@<TRIPOS>SUBSTRUCTURE
     1 P6Z         1 TEMP              0 ****  ****    0 ROOT
