@<TRIPOS>MOLECULE
P72
   18    18     1     0     0
SMALL
bcc


@<TRIPOS>ATOM
      1 N1          14.6900     1.3990    19.4210 n2         1 P72      -0.831100
      2 C2          13.1740     3.7970    19.3630 ca         1 P72      -0.056000
      3 C3          12.5030     4.9790    19.1150 ca         1 P72      -0.206000
      4 C4          13.2090     6.1810    19.0500 ca         1 P72       0.154100
      5 C6          15.2460     4.9810    19.4960 ca         1 P72      -0.056000
      6 N           16.4630     2.5790    20.4270 nv         1 P72      -0.967800
      7 C           15.2420     2.4820    19.8190 ce         1 P72       0.666800
      8 O           12.5140     7.3050    18.8040 oh         1 P72      -0.491100
      9 C1          14.5540     3.7740    19.5650 ca         1 P72      -0.184900
     10 C5          14.5880     6.1740    19.2410 ca         1 P72      -0.206000
     11 H1          15.2420     0.5880    19.6860 hn         1 P72       0.369400
     12 H2          12.6160     2.8710    19.4080 ha         1 P72       0.145500
     13 H3          11.4300     4.9770    18.9730 ha         1 P72       0.141000
     14 H4          16.3210     5.0090    19.6180 ha         1 P72       0.145500
     15 H5          16.6250     3.3480    21.0560 hn         1 P72       0.404300
     16 H6          16.9010     1.7200    20.7200 hn         1 P72       0.404300
     17 H7          13.1020     8.0690    18.7840 ho         1 P72       0.427000
     18 H8          15.1550     7.0960    19.1840 ha         1 P72       0.141000
@<TRIPOS>BOND
     1     1     7 2   
     2     1    11 1   
     3     2     3 ar  
     4     2     9 ar  
     5     2    12 1   
     6     3     4 ar  
     7     3    13 1   
     8     4     8 1   
     9     4    10 ar  
    10     5     9 ar  
    11     5    10 ar  
    12     5    14 1   
    13     6     7 1   
    14     6    15 1   
    15     6    16 1   
    16     7     9 1   
    17     8    17 1   
    18    10    18 1   
@<TRIPOS>SUBSTRUCTURE
     1 P72         1 TEMP              0 ****  ****    0 ROOT
