@<TRIPOS>MOLECULE
P72
   18    18     1     0     0
SMALL
No Charge or Current Charge


@<TRIPOS>ATOM
      1 N1          14.7510     1.3380    19.5110 n2         1 P72      -0.831100
      2 C2          13.1430     3.7830    19.3680 ca         1 P72      -0.038000
      3 C3          12.4690     4.9930    19.1240 ca         1 P72      -0.188000
      4 C4          13.1810     6.1960    19.0590 ca         1 P72       0.154100
      5 C6          15.2530     4.9870    19.4730 ca         1 P72      -0.038000
      6 N           16.4440     2.5000    20.4280 nv         1 P72      -1.078200
      7 C           15.2560     2.4680    19.7900 ce         1 P72       0.666800
      8 O           12.5180     7.3610    18.8210 oh         1 P72      -0.530100
      9 C1          14.5430     3.7650    19.5650 ca         1 P72      -0.184900
     10 C5          14.5730     6.1940    19.2280 ca         1 P72      -0.188000
     11 H1          15.4950     0.6350    19.5740 hn         1 P72       0.369400
     12 H2          12.5700     2.8590    19.4110 ha         1 P72       0.127500
     13 H3          11.3910     4.9930    18.9840 ha         1 P72       0.123000
     14 H4          16.3360     5.0110    19.5770 ha         1 P72       0.127500
     15 H5          16.6440     3.3700    20.9070 hn         1 P72       0.459500
     16 H6          16.7000     1.6620    20.9370 hn         1 P72       0.459500
     17 H7          13.1720     8.0920    18.8070 ho         1 P72       0.466000
     18 H8          15.1370     7.1220    19.1660 ha         1 P72       0.123000
@<TRIPOS>BOND
     1     1     7 2   
     2     1    11 1   
     3     2     3 ar  
     4     2     9 ar  
     5     2    12 1   
     6     3     4 ar  
     7     3    13 1   
     8     4     8 1   
     9     4    10 ar  
    10     5     9 ar  
    11     5    10 ar  
    12     5    14 1   
    13     6     7 1   
    14     6    15 1   
    15     6    16 1   
    16     7     9 1   
    17     8    17 1   
    18    10    18 1   
@<TRIPOS>SUBSTRUCTURE
     1 P72         1 TEMP              0 ****  ****    0 ROOT
