@<TRIPOS>MOLECULE
P73
   36    37     1     0     0
SMALL
No Charge or Current Charge


@<TRIPOS>ATOM
      1 C10        112.5560   100.5630    67.1980 c          1 P73       0.667100
      2 C12        112.1020   102.3570    68.9750 ca         1 P73      -0.058000
      3 C13        111.0400   103.0630    68.3500 ca         1 P73       0.319900
      4 C15        110.8440   104.5300    70.1380 ca         1 P73       0.305900
      5 C01        112.9420    96.0230    61.5470 c3         1 P73      -0.086100
      6 C03        115.4440    95.8280    62.0390 c3         1 P73      -0.086100
      7 C04        113.8710    96.7950    63.7840 ca         1 P73      -0.065300
      8 C05        114.0090    98.1800    63.5640 ca         1 P73      -0.067500
      9 C06        113.8740    99.0940    64.6240 ca         1 P73      -0.008900
     10 C08        113.5870    98.6310    65.9290 ca         1 P73       0.006000
     11 C16        111.8870   103.8930    70.8310 ca         1 P73      -0.134000
     12 C17        112.5290   102.7900    70.2440 ca         1 P73      -0.138000
     13 C19        113.4730    97.2430    66.1520 ca         1 P73      -0.008900
     14 C21        113.6070    96.3350    65.0890 ca         1 P73      -0.067500
     15 N09        113.4440    99.5180    67.0250 ns         1 P73      -0.174000
     16 N11        112.7630   101.2380    68.3920 ns         1 P73      -0.154000
     17 N14        110.4220   104.1290    68.9180 nb         1 P73      -0.643000
     18 O18        111.6770   100.8390    66.3900 o          1 P73      -0.593100
     19 Br2        113.1100    96.5590    67.9090 br         1 P73      -0.088100
     20 H1         110.6650   102.7850    67.3680 h4         1 P73       0.057100
     21 H2         110.3310   105.3880    70.5730 h4         1 P73       0.022100
     22 H3         111.9390    95.9780    61.9870 hc         1 P73       0.039367
     23 H4         113.0630    97.0010    61.0650 hc         1 P73       0.039367
     24 H5         113.0080    95.2500    60.7720 hc         1 P73       0.039367
     25 H6         113.8620    94.7830    63.0220 hc         1 P73       0.052700
     26 H7         116.1890    95.6430    62.8220 hc         1 P73       0.039367
     27 H8         115.5590    95.0530    61.2720 hc         1 P73       0.039367
     28 H9         115.6630    96.7990    61.5790 hc         1 P73       0.039367
     29 H10        114.2340    98.5530    62.5680 ha         1 P73       0.135500
     30 H11        112.1890   104.2560    71.8100 ha         1 P73       0.123000
     31 H12        113.3390   102.2840    70.7650 ha         1 P73       0.113000
     32 H13        113.5060    95.2700    65.2820 ha         1 P73       0.135500
     33 H14        114.0740    99.3460    67.7980 hn         1 P73       0.159000
     34 H15        113.5240   100.8740    68.9520 hn         1 P73       0.148000
     35 Br1        114.1700   100.9550    64.2460 br         1 P73      -0.088100
     36 C02        114.0180    95.7980    62.6330 c3         1 P73      -0.021400
@<TRIPOS>BOND
     1     1    15 1   
     2     1    16 1   
     3     1    18 2   
     4     2     3 ar  
     5     2    12 ar  
     6     2    16 1   
     7     3    17 ar  
     8     3    20 1   
     9     4    11 ar  
    10     4    17 ar  
    11     4    21 1   
    12     5    22 1   
    13     5    23 1   
    14     5    24 1   
    15     5    36 1   
    16     6    26 1   
    17     6    27 1   
    18     6    28 1   
    19     6    36 1   
    20     7     8 ar  
    21     7    14 ar  
    22     7    36 1   
    23     8     9 ar  
    24     8    29 1   
    25     9    10 ar  
    26     9    35 1   
    27    10    13 ar  
    28    10    15 1   
    29    11    12 ar  
    30    11    30 1   
    31    12    31 1   
    32    13    14 ar  
    33    13    19 1   
    34    14    32 1   
    35    15    33 1   
    36    16    34 1   
    37    25    36 1   
@<TRIPOS>SUBSTRUCTURE
     1 P73         1 TEMP              0 ****  ****    0 ROOT
