@<TRIPOS>MOLECULE
P73
   36    37     1     0     0
SMALL
abcg2


@<TRIPOS>ATOM
      1 C10        112.9130   100.5880    67.2220 c          1 P73       0.667100
      2 C12        112.1970   102.2880    68.8940 ca         1 P73      -0.058000
      3 C13        111.0530   102.7700    68.2450 ca         1 P73       0.319900
      4 C15        110.5190   104.1400    70.0140 ca         1 P73       0.305900
      5 C01        112.7950    96.2630    61.6190 c3         1 P73      -0.086100
      6 C03        115.2010    95.6620    62.1220 c3         1 P73      -0.086100
      7 C04        113.8260    96.8870    63.8340 ca         1 P73      -0.065300
      8 C05        114.1570    98.2210    63.5900 ca         1 P73      -0.067500
      9 C06        114.1970    99.1330    64.6310 ca         1 P73      -0.008900
     10 C08        113.8940    98.7730    65.9490 ca         1 P73       0.006000
     11 C16        111.6350   103.7260    70.7320 ca         1 P73      -0.134000
     12 C17        112.4810   102.7890    70.1680 ca         1 P73      -0.138000
     13 C19        113.5550    97.4360    66.1650 ca         1 P73      -0.008900
     14 C21        113.5300    96.5020    65.1390 ca         1 P73      -0.067500
     15 N09        113.9450    99.7030    67.0060 ns         1 P73      -0.174000
     16 N11        113.0810   101.3500    68.3520 ns         1 P73      -0.154000
     17 N14        110.2370   103.6720    68.7970 nb         1 P73      -0.643000
     18 O18        111.9590   100.6820    66.4610 o          1 P73      -0.593100
     19 BR2        113.0960    96.8640    67.9300 br         1 P73      -0.088100
     20 H1         110.8000   102.4140    67.2590 h4         1 P73       0.057100
     21 H2         109.8340   104.8710    70.4280 h4         1 P73       0.022100
     22 H3         111.7950    96.4000    62.0350 hc         1 P73       0.039367
     23 H4         113.0900    97.1930    61.1280 hc         1 P73       0.039367
     24 H5         112.7470    95.4820    60.8580 hc         1 P73       0.039367
     25 H6         113.4730    94.9260    63.1460 hc         1 P73       0.052700
     26 H7         115.9090    95.3580    62.8950 hc         1 P73       0.039367
     27 H8         115.1740    94.8840    61.3560 hc         1 P73       0.039367
     28 H9         115.5730    96.5790    61.6600 hc         1 P73       0.039367
     29 H10        114.3980    98.5490    62.5890 ha         1 P73       0.135500
     30 H11        111.8350   104.1280    71.7160 ha         1 P73       0.123000
     31 H12        113.3580   102.4400    70.7010 ha         1 P73       0.113000
     32 H13        113.2680    95.4750    65.3530 ha         1 P73       0.135500
     33 H14        114.5820    99.4960    67.7620 hn         1 P73       0.159000
     34 H15        113.9040   101.1760    68.9090 hn         1 P73       0.148000
     35 BR1        114.7070   100.9320    64.2390 br         1 P73      -0.088100
     36 C02        113.8000    95.8730    62.7100 c3         1 P73      -0.021400
@<TRIPOS>BOND
     1     1    15 1   
     2     1    16 1   
     3     1    18 2   
     4     2     3 ar  
     5     2    12 ar  
     6     2    16 1   
     7     3    17 ar  
     8     3    20 1   
     9     4    11 ar  
    10     4    17 ar  
    11     4    21 1   
    12     5    22 1   
    13     5    23 1   
    14     5    24 1   
    15     5    36 1   
    16     6    26 1   
    17     6    27 1   
    18     6    28 1   
    19     6    36 1   
    20     7     8 ar  
    21     7    14 ar  
    22     7    36 1   
    23     8     9 ar  
    24     8    29 1   
    25     9    10 ar  
    26     9    35 1   
    27    10    13 ar  
    28    10    15 1   
    29    11    12 ar  
    30    11    30 1   
    31    12    31 1   
    32    13    14 ar  
    33    13    19 1   
    34    14    32 1   
    35    15    33 1   
    36    16    34 1   
    37    25    36 1   
@<TRIPOS>SUBSTRUCTURE
     1 P73         1 TEMP              0 ****  ****    0 ROOT
