@<TRIPOS>MOLECULE
P74
   67    68     1     0     0
SMALL
abcg2


@<TRIPOS>ATOM
      1 C01         -0.9430     1.5160    -0.5010 ca         1 P74      -0.023000
      2 C04         -2.3660     1.5220    -0.5750 cg         1 P74      -0.091000
      3 C05         -3.5670     1.5310    -0.6590 c1         1 P74      -0.149100
      4 C06         -5.0190     1.5700    -0.7820 c3         1 P74       0.205100
      5 N           -5.6020     0.2790    -0.4930 ns         1 P74      -0.502900
      6 C1           1.1900     0.5800    -1.1960 ca         1 P74      -0.127300
      7 N1           2.6960    -1.3640    -1.1640 n3         1 P74      -0.708600
      8 O1           3.2000     1.5130    -0.4580 oh         1 P74      -0.502100
      9 C02         -0.2720     2.4500     0.2840 ca         1 P74      -0.011000
     10 C2           1.9620    -0.4350    -1.9960 c3         1 P74       0.230100
     11 N2           4.4170    -4.8000     0.7070 n3         1 P74      -0.734600
     12 C03          3.6000    -2.1710    -1.9560 c6         1 P74       0.168300
     13 C3          -0.1910     0.5860    -1.2250 ca         1 P74      -0.036000
     14 C4           1.1130     2.4540     0.3180 ca         1 P74       0.083000
     15 C7           1.8670     1.5380    -0.4220 ca         1 P74       0.212100
     16 C8           4.4680    -3.0700    -1.0890 c6         1 P74      -0.077900
     17 C10          3.6170    -3.9940    -0.2190 c6         1 P74       0.197500
     18 C11          3.6240    -5.8230     1.3760 c3         1 P74       0.173300
     19 C12          4.3000    -6.4110     2.6060 c3         1 P74      -0.109600
     20 C13          5.6570    -5.3340     0.1650 c3         1 P74       0.173300
     21 C14          5.5390    -6.3640    -0.9590 c3         1 P74      -0.109600
     22 C15          2.6340    -3.1080     0.5530 c6         1 P74      -0.077900
     23 C16          1.8290    -2.2040    -0.3640 c6         1 P74       0.168300
     24 I2           2.0700     3.8950     1.5200 i          1 P74      -0.311000
     25 C07         -6.8970     0.1680    -0.1180 c          1 P74       0.650100
     26 O01         -7.2480    -1.1130    -0.0580 os         1 P74      -0.477100
     27 C08         -8.5880    -1.5430     0.3100 c3         1 P74       0.225000
     28 C09         -9.6150    -1.0450    -0.6990 c3         1 P74      -0.108767
     29 C17         -8.4900    -3.0620     0.2410 c3         1 P74      -0.108767
     30 C           -8.9320    -1.1130     1.7310 c3         1 P74      -0.108767
     31 O           -7.6100     1.1180     0.1360 o          1 P74      -0.550000
     32 H02         -0.8380     3.1710     0.8560 ha         1 P74       0.135000
     33 H3          -0.7050    -0.1510    -1.8290 ha         1 P74       0.122000
     34 H061        -5.4170     2.3080    -0.0850 h1         1 P74       0.069700
     35 H062        -5.2840     1.9160    -1.7880 h1         1 P74       0.069700
     36 H           -5.1210    -0.5410    -0.8250 hn         1 P74       0.327500
     37 H21C         1.2580    -0.9540    -2.6690 h1         1 P74       0.038200
     38 H22C         2.6770     0.0810    -2.6430 h1         1 P74       0.038200
     39 H031         3.0530    -2.7950    -2.6880 h1         1 P74       0.028950
     40 H032         4.2440    -1.5060    -2.5360 h1         1 P74       0.028950
     41 H161         1.1800    -1.5730     0.2460 h1         1 P74       0.028950
     42 H162         1.1620    -2.8170    -1.0000 h1         1 P74       0.028950
     43 H1           3.5970     2.2540     0.0170 ho         1 P74       0.477000
     44 H10          3.0330    -4.6410    -0.9010 h1         1 P74       0.016700
     45 H111         2.6880    -5.3720     1.7010 h1         1 P74       0.037700
     46 H112         3.3350    -6.6390     0.6950 h1         1 P74       0.037700
     47 H131         6.2820    -4.5050    -0.1710 h1         1 P74       0.037700
     48 H132         6.2160    -5.7830     0.9890 h1         1 P74       0.037700
     49 H81C         5.1230    -3.6320    -1.7570 hc         1 P74       0.054200
     50 H82C         5.1060    -2.4510    -0.4500 hc         1 P74       0.054200
     51 H151         1.9280    -3.7000     1.1370 hc         1 P74       0.054200
     52 H152         3.2010    -2.4940     1.2600 hc         1 P74       0.054200
     53 H121         4.6290    -5.6190     3.2810 hc         1 P74       0.035367
     54 H122         3.5950    -7.0430     3.1460 hc         1 P74       0.035367
     55 H123         5.1650    -7.0290     2.3640 hc         1 P74       0.035367
     56 H141         5.0150    -7.2650    -0.6390 hc         1 P74       0.035367
     57 H142         5.0120    -5.9680    -1.8290 hc         1 P74       0.035367
     58 H143         6.5340    -6.6660    -1.2900 hc         1 P74       0.035367
     59 H091        -9.3470    -1.3450    -1.7130 hc         1 P74       0.049922
     60 H092       -10.5840    -1.4900    -0.4690 hc         1 P74       0.049922
     61 H093        -9.7330     0.0360    -0.6730 hc         1 P74       0.049922
     62 H171        -7.7490    -3.4450     0.9450 hc         1 P74       0.049922
     63 H172        -9.4530    -3.5050     0.4970 hc         1 P74       0.049922
     64 H173        -8.2230    -3.4000    -0.7610 hc         1 P74       0.049922
     65 HC1         -9.0950    -0.0420     1.8160 hc         1 P74       0.049922
     66 HC2         -9.8480    -1.6170     2.0410 hc         1 P74       0.049922
     67 HC3         -8.1450    -1.4050     2.4280 hc         1 P74       0.049922
@<TRIPOS>BOND
     1     1     2 1   
     2     1     9 ar  
     3     1    13 ar  
     4     2     3 3   
     5     3     4 1   
     6     4     5 1   
     7     4    34 1   
     8     4    35 1   
     9     5    25 1   
    10     5    36 1   
    11     6    10 1   
    12     6    13 ar  
    13     6    15 ar  
    14     7    10 1   
    15     7    12 1   
    16     7    23 1   
    17     8    15 1   
    18     8    43 1   
    19     9    14 ar  
    20     9    32 1   
    21    10    37 1   
    22    10    38 1   
    23    11    17 1   
    24    11    18 1   
    25    11    20 1   
    26    12    16 1   
    27    12    39 1   
    28    12    40 1   
    29    13    33 1   
    30    14    15 ar  
    31    14    24 1   
    32    16    17 1   
    33    16    49 1   
    34    16    50 1   
    35    17    22 1   
    36    17    44 1   
    37    18    19 1   
    38    18    45 1   
    39    18    46 1   
    40    19    53 1   
    41    19    54 1   
    42    19    55 1   
    43    20    21 1   
    44    20    47 1   
    45    20    48 1   
    46    21    56 1   
    47    21    57 1   
    48    21    58 1   
    49    22    23 1   
    50    22    51 1   
    51    22    52 1   
    52    23    41 1   
    53    23    42 1   
    54    25    26 1   
    55    25    31 2   
    56    26    27 1   
    57    27    28 1   
    58    27    29 1   
    59    27    30 1   
    60    28    59 1   
    61    28    60 1   
    62    28    61 1   
    63    29    62 1   
    64    29    63 1   
    65    29    64 1   
    66    30    65 1   
    67    30    66 1   
    68    30    67 1   
@<TRIPOS>SUBSTRUCTURE
     1 P74         1 TEMP              0 ****  ****    0 ROOT
