@<TRIPOS>MOLECULE
P74
   67    68     1     0     0
SMALL
No Charge or Current Charge


@<TRIPOS>ATOM
      1 C01         -0.7250     2.0620    -0.5600 ca         1 P74      -0.023000
      2 C04         -2.1570     1.9940    -0.5270 cg         1 P74      -0.091000
      3 C05         -3.3690     1.9250    -0.4970 c1         1 P74      -0.149100
      4 C06         -4.8280     1.7940    -0.4580 c3         1 P74       0.205100
      5 N           -5.1870     0.4140    -0.1620 ns         1 P74      -0.502900
      6 C1           1.4210     1.1360    -1.2900 ca         1 P74      -0.127300
      7 N1           2.6760    -1.0490    -1.1840 n3         1 P74      -0.708600
      8 O1           3.4580     2.2770    -0.6620 oh         1 P74      -0.502100
      9 C02         -0.0530     3.1030     0.1040 ca         1 P74      -0.011000
     10 C2           2.1890     0.0550    -2.0480 c3         1 P74       0.230100
     11 N2           3.6990    -4.8830     0.7080 n3         1 P74      -0.734600
     12 C03          3.5790    -1.9670    -1.9190 c6         1 P74       0.168300
     13 C3           0.0110     1.0860    -1.2560 ca         1 P74      -0.036000
     14 C4           1.3480     3.1670     0.0680 ca         1 P74       0.083000
     15 C7           2.0910     2.1890    -0.6280 ca         1 P74       0.212100
     16 C8           4.1950    -3.0340    -0.9880 c6         1 P74      -0.077900
     17 C10          3.1050    -3.8720    -0.2520 c6         1 P74       0.197500
     18 C11          2.6740    -5.6490     1.4870 c3         1 P74       0.173300
     19 C12          3.2290    -6.6120     2.5600 c3         1 P74      -0.109600
     20 C13          4.7500    -5.7650     0.1050 c3         1 P74       0.173300
     21 C14          4.2610    -6.7020    -1.0210 c3         1 P74      -0.109600
     22 C15          2.1310    -2.8760     0.4500 c6         1 P74      -0.077900
     23 C16          1.5840    -1.8070    -0.5230 c6         1 P74       0.168300
     24 I2           2.3630     4.7930     1.0970 i          1 P74      -0.311000
     25 C07         -6.4650    -0.0430    -0.0660 c          1 P74       0.650100
     26 O01         -6.4190    -1.3800     0.2210 os         1 P74      -0.477100
     27 C08         -7.6120    -2.1810     0.3910 c3         1 P74       0.225000
     28 C09         -8.4230    -2.1960    -0.9310 c3         1 P74      -0.108767
     29 C17         -7.0790    -3.5980     0.6960 c3         1 P74      -0.108767
     30 C           -8.4290    -1.6530     1.5980 c3         1 P74      -0.108767
     31 O           -7.4570     0.6500    -0.2170 o          1 P74      -0.550000
     32 H02         -0.6130     3.8620     0.6450 ha         1 P74       0.135000
     33 H3          -0.5130     0.2810    -1.7670 ha         1 P74       0.122000
     34 H061        -5.2380     2.4540     0.3180 h1         1 P74       0.069700
     35 H062        -5.2520     2.0820    -1.4290 h1         1 P74       0.069700
     36 H           -4.4530    -0.2650    -0.0140 hn         1 P74       0.327500
     37 H21C         1.5440    -0.3500    -2.8400 h1         1 P74       0.038200
     38 H22C         3.0390     0.5300    -2.5580 h1         1 P74       0.038200
     39 H031         3.0320    -2.4710    -2.7300 h1         1 P74       0.028950
     40 H032         4.3970    -1.3990    -2.3870 h1         1 P74       0.028950
     41 H161         0.9360    -1.1300     0.0510 h1         1 P74       0.028950
     42 H162         0.9520    -2.2980    -1.2780 h1         1 P74       0.028950
     43 H1           3.7210     3.0610    -0.1320 ho         1 P74       0.477000
     44 H10          2.5240    -4.4070    -1.0180 h1         1 P74       0.016700
     45 H111         2.0300    -4.9550     2.0390 h1         1 P74       0.037700
     46 H112         2.0240    -6.2170     0.8080 h1         1 P74       0.037700
     47 H131         5.5800    -5.1620    -0.2830 h1         1 P74       0.037700
     48 H132         5.2130    -6.3860     0.8820 h1         1 P74       0.037700
     49 H81C         4.8300    -3.6750    -1.6110 hc         1 P74       0.054200
     50 H82C         4.8520    -2.5470    -0.2550 hc         1 P74       0.054200
     51 H151         1.2640    -3.4010     0.8660 hc         1 P74       0.054200
     52 H152         2.6410    -2.3830     1.2880 hc         1 P74       0.054200
     53 H121         3.9490    -6.0980     3.2080 hc         1 P74       0.035367
     54 H122         2.4100    -6.9820     3.1880 hc         1 P74       0.035367
     55 H123         3.7160    -7.4820     2.1060 hc         1 P74       0.035367
     56 H141         3.4800    -7.3810    -0.6610 hc         1 P74       0.035367
     57 H142         3.8650    -6.1320    -1.8690 hc         1 P74       0.035367
     58 H143         5.0950    -7.3120    -1.3870 hc         1 P74       0.035367
     59 H091        -7.7710    -2.4140    -1.7860 hc         1 P74       0.049922
     60 H092        -9.2000    -2.9690    -0.8940 hc         1 P74       0.049922
     61 H093        -8.9260    -1.2410    -1.1140 hc         1 P74       0.049922
     62 H171        -6.4660    -3.5960     1.6060 hc         1 P74       0.049922
     63 H172        -7.9050    -4.3030     0.8460 hc         1 P74       0.049922
     64 H173        -6.4610    -3.9700    -0.1310 hc         1 P74       0.049922
     65 HC1         -8.9320    -0.7070     1.3700 hc         1 P74       0.049922
     66 HC2         -9.2070    -2.3740     1.8770 hc         1 P74       0.049922
     67 HC3         -7.7810    -1.5000     2.4690 hc         1 P74       0.049922
@<TRIPOS>BOND
     1     1     2 1   
     2     1     9 ar  
     3     1    13 ar  
     4     2     3 3   
     5     3     4 1   
     6     4     5 1   
     7     4    34 1   
     8     4    35 1   
     9     5    25 1   
    10     5    36 1   
    11     6    10 1   
    12     6    13 ar  
    13     6    15 ar  
    14     7    10 1   
    15     7    12 1   
    16     7    23 1   
    17     8    15 1   
    18     8    43 1   
    19     9    14 ar  
    20     9    32 1   
    21    10    37 1   
    22    10    38 1   
    23    11    17 1   
    24    11    18 1   
    25    11    20 1   
    26    12    16 1   
    27    12    39 1   
    28    12    40 1   
    29    13    33 1   
    30    14    15 ar  
    31    14    24 1   
    32    16    17 1   
    33    16    49 1   
    34    16    50 1   
    35    17    22 1   
    36    17    44 1   
    37    18    19 1   
    38    18    45 1   
    39    18    46 1   
    40    19    53 1   
    41    19    54 1   
    42    19    55 1   
    43    20    21 1   
    44    20    47 1   
    45    20    48 1   
    46    21    56 1   
    47    21    57 1   
    48    21    58 1   
    49    22    23 1   
    50    22    51 1   
    51    22    52 1   
    52    23    41 1   
    53    23    42 1   
    54    25    26 1   
    55    25    31 2   
    56    26    27 1   
    57    27    28 1   
    58    27    29 1   
    59    27    30 1   
    60    28    59 1   
    61    28    60 1   
    62    28    61 1   
    63    29    62 1   
    64    29    63 1   
    65    29    64 1   
    66    30    65 1   
    67    30    66 1   
    68    30    67 1   
@<TRIPOS>SUBSTRUCTURE
     1 P74         1 TEMP              0 ****  ****    0 ROOT
