@<TRIPOS>MOLECULE
P75
   55    58     1     0     0
SMALL
No Charge or Current Charge


@<TRIPOS>ATOM
      1 C1          -8.1780    10.4230     7.5370 cc         1 P75      -0.272400
      2 C2          -8.9180     9.3430     6.7810 c3         1 P75      -0.017900
      3 C3          -6.8480    10.3430     7.8920 cd         1 P75      -0.005400
      4 C4          -4.8080    11.3160     8.9900 c5         1 P75       0.348700
      5 C5          -4.7470    10.5150    10.3310 c5         1 P75      -0.135400
      6 C10         -5.9580     4.1120    15.0890 ca         1 P75      -0.199500
      7 C11         -6.2960     3.0550    15.9500 ca         1 P75       0.031000
      8 C15         -4.0230     7.1310    11.4420 cc         1 P75      -0.172000
      9 C16         -3.2480     9.5950     8.7460 c5         1 P75       0.154300
     10 C17         -2.7290     8.4790     7.7940 c3         1 P75       0.157600
     11 C18         -6.9570    12.5460     8.9380 c          1 P75       0.614000
     12 O1          -4.3730     5.3370    13.8020 os         1 P75      -0.340100
     13 C6          -4.1950     9.1300     9.8830 c5         1 P75       0.053300
     14 C7          -3.0940     6.8150    12.3940 cd         1 P75       0.181300
     15 C8          -3.0520     5.5990    13.2890 c3         1 P75       0.152300
     16 C9          -4.6380     4.2790    14.6460 ca         1 P75       0.202100
     17 C13         -3.9710     2.3160    15.9330 ca         1 P75       0.031000
     18 C14         -3.6410     3.3760    15.0710 ca         1 P75      -0.199500
     19 C12         -5.2990     2.1530    16.3740 ca         1 P75      -0.318500
     20 N1          -3.5730     8.3250    10.9410 na         1 P75       0.128800
     21 O6          -6.4660    13.4830     9.5450 o          1 P75      -0.565000
     22 N5          -8.2600    12.5730     8.5630 ns         1 P75      -0.465500
     23 C           -8.9650    11.6250     7.8930 c          1 P75       0.587200
     24 O          -10.1440    11.7910     7.6240 o          1 P75      -0.525000
     25 N           -6.2400    11.3870     8.5960 n          1 P75      -0.334000
     26 O5          -4.0530    10.5510     8.0240 os         1 P75      -0.442000
     27 O4          -3.7990     7.6390     7.3120 oh         1 P75      -0.734000
     28 N3          -2.1300     7.8030    12.4350 nd         1 P75      -0.327000
     29 N2          -2.4200     8.7220    11.5550 nc         1 P75      -0.203800
     30 S           -5.7130     0.8020    17.4720 sy         1 P75       1.131600
     31 N4          -5.9920    -0.4080    16.4090 n8         1 P75      -1.002100
     32 H1          -8.2630     8.4920     6.5590 hc         1 P75       0.045700
     33 H2          -9.7660     8.9650     7.3640 hc         1 P75       0.045700
     34 H3          -9.3040     9.7230     5.8280 hc         1 P75       0.045700
     35 H4          -6.2020     9.4990     7.6560 h4         1 P75       0.233000
     36 H5          -4.4080    12.3350     9.0910 h2         1 P75       0.115700
     37 H6          -4.0650    11.0130    11.0280 hc         1 P75       0.096200
     38 H7          -5.7140    10.4350    10.8410 hc         1 P75       0.096200
     39 H9          -7.3270     2.9450    16.2830 ha         1 P75       0.138000
     40 H10         -4.9170     6.6250    11.1060 h4         1 P75       0.175000
     41 H11         -2.3750    10.1240     9.1560 h1         1 P75       0.085700
     42 H12         -1.9940     7.8740     8.3440 h1         1 P75       0.044200
     43 H13         -2.2010     8.9530     6.9560 h1         1 P75       0.044200
     44 H14         -5.0100     8.5390     9.4480 h1         1 P75       0.095700
     45 H15         -2.6870     4.7450    12.7030 h1         1 P75       0.058200
     46 H16         -2.3470     5.7810    14.1110 h1         1 P75       0.058200
     47 H17         -3.1920     1.6240    16.2530 ha         1 P75       0.138000
     48 H18         -2.6100     3.4780    14.7460 ha         1 P75       0.128500
     49 H19         -8.7710    13.4040     8.8150 hn         1 P75       0.344500
     50 H20         -3.4050     7.0150     6.6570 ho         1 P75       0.519000
     51 H21         -6.9110    -0.7210    16.7120 hn         1 P75       0.470500
     52 H22         -6.1780     0.1020    15.5490 hn         1 P75       0.470500
     53 H8          -6.7260     4.8080    14.7620 ha         1 P75       0.128500
     54 O2          -4.5380     0.3790    18.2330 o          1 P75      -0.546000
     55 O3          -7.0180     1.0360    18.0860 o          1 P75      -0.546000
@<TRIPOS>BOND
     1     1     2 1   
     2     1     3 2   
     3     1    23 1   
     4     2    32 1   
     5     2    33 1   
     6     2    34 1   
     7     3    25 1   
     8     3    35 1   
     9     4     5 1   
    10     4    25 1   
    11     4    26 1   
    12     4    36 1   
    13     5    13 1   
    14     5    37 1   
    15     5    38 1   
    16     6     7 ar  
    17     6    16 ar  
    18     6    53 1   
    19     7    19 ar  
    20     7    39 1   
    21     8    14 2   
    22     8    20 1   
    23     8    40 1   
    24     9    10 1   
    25     9    13 1   
    26     9    26 1   
    27     9    41 1   
    28    10    27 1   
    29    10    42 1   
    30    10    43 1   
    31    11    21 2   
    32    11    22 1   
    33    11    25 1   
    34    12    15 1   
    35    12    16 1   
    36    13    20 1   
    37    13    44 1   
    38    14    15 1   
    39    14    28 1   
    40    15    45 1   
    41    15    46 1   
    42    16    18 ar  
    43    17    18 ar  
    44    17    19 ar  
    45    17    47 1   
    46    18    48 1   
    47    19    30 1   
    48    20    29 1   
    49    22    23 1   
    50    22    49 1   
    51    23    24 2   
    52    27    50 1   
    53    28    29 2   
    54    30    31 1   
    55    30    54 2   
    56    30    55 2   
    57    31    51 1   
    58    31    52 1   
@<TRIPOS>SUBSTRUCTURE
     1 P75         1 TEMP              0 ****  ****    0 ROOT
