@<TRIPOS>MOLECULE
P75
   55    58     1     0     0
SMALL
bcc


@<TRIPOS>ATOM
      1 C1          -7.9540    10.1800     7.3570 cc         1 P75      -0.272400
      2 C2          -8.3720     9.1380     6.3700 c3         1 P75      -0.017900
      3 C3          -6.6930    10.2850     7.8140 cd         1 P75       0.044600
      4 C4          -4.9110    11.2750     9.2490 c5         1 P75       0.325500
      5 C5          -4.7630    10.4980    10.5560 c5         1 P75      -0.135400
      6 C10         -5.2880     4.7240    15.7730 ca         1 P75      -0.217500
      7 C11         -5.8120     3.6440    16.4510 ca         1 P75       0.013000
      8 C15         -3.8900     7.0860    11.4100 cc         1 P75      -0.204600
      9 C16         -3.3650     9.5690     8.8890 c5         1 P75       0.131100
     10 C17         -3.0990     8.5180     7.8390 c3         1 P75       0.134400
     11 C18         -7.1780    12.1320     9.2510 c          1 P75       0.823500
     12 O1          -3.7970     5.6600    14.2680 os         1 P75      -0.316900
     13 C6          -4.2660     9.1500    10.0540 c5         1 P75       0.024000
     14 C7          -2.9770     6.7980    12.3910 cd         1 P75       0.246600
     15 C8          -2.8550     5.5610    13.2010 c3         1 P75       0.129100
     16 C9          -4.2010     4.5580    14.9090 ca         1 P75       0.202100
     17 C13         -4.1520     2.2130    15.4470 ca         1 P75       0.013000
     18 C14         -3.6190     3.2960    14.7670 ca         1 P75      -0.217500
     19 C12         -5.2520     2.3840    16.2770 ca         1 P75      -0.318500
     20 N1          -3.5970     8.3440    11.0490 na         1 P75       0.107400
     21 O6          -6.8630    12.9500    10.0930 o          1 P75      -0.640500
     22 N5          -8.4530    12.0360     8.7600 ns         1 P75      -0.599500
     23 C           -8.9410    11.1220     7.8400 c          1 P75       0.729700
     24 O          -10.1100    11.1520     7.5010 o          1 P75      -0.600500
     25 N           -6.2900    11.2270     8.7220 n          1 P75      -0.401000
     26 O5          -4.0440    10.6870     8.3270 os         1 P75      -0.395600
     27 O4          -4.3140     7.9790     7.3820 oh         1 P75      -0.611800
     28 N3          -2.1920     7.8850    12.5570 nd         1 P75      -0.327000
     29 N2          -2.5700     8.8080    11.7450 nc         1 P75      -0.203800
     30 S           -5.9630     0.9940    17.0980 sy         1 P75       1.273200
     31 N4          -6.6910     0.2150    15.8300 n8         1 P75      -0.891700
     32 H1          -7.5340     8.4940     6.1090 hc         1 P75       0.045700
     33 H2          -9.1660     8.5070     6.7710 hc         1 P75       0.045700
     34 H3          -8.7510     9.5860     5.4500 hc         1 P75       0.045700
     35 H4          -5.9260     9.6070     7.4670 h4         1 P75       0.183000
     36 H5          -4.6640    12.3290     9.3730 h2         1 P75       0.115700
     37 H6          -4.0070    10.9750    11.1820 hc         1 P75       0.096200
     38 H7          -5.6890    10.4370    11.1240 hc         1 P75       0.096200
     39 H9          -6.6620     3.7890    17.1040 ha         1 P75       0.156000
     40 H10         -4.6910     6.5180    10.9680 h4         1 P75       0.193000
     41 H11         -2.3930     9.8900     9.2840 h1         1 P75       0.085700
     42 H12         -2.4560     7.7550     8.2970 h1         1 P75       0.044200
     43 H13         -2.5190     8.9730     7.0280 h1         1 P75       0.044200
     44 H14         -5.0990     8.5460     9.6940 h1         1 P75       0.095700
     45 H15         -3.0730     4.6900    12.5770 h1         1 P75       0.058200
     46 H16         -1.8410     5.4540    13.5950 h1         1 P75       0.058200
     47 H17         -3.6990     1.2380    15.3190 ha         1 P75       0.156000
     48 H18         -2.7570     3.1390    14.1340 ha         1 P75       0.146500
     49 H19         -9.1140    12.7040     9.1370 hn         1 P75       0.344500
     50 H20         -4.1330     7.3790     6.6520 ho         1 P75       0.420000
     51 H21         -6.9260    -0.7440    16.0720 hn         1 P75       0.415300
     52 H22         -7.5160     0.7030    15.4940 hn         1 P75       0.415300
     53 H8          -5.7260     5.7070    15.8930 ha         1 P75       0.146500
     54 O2          -4.9220     0.0870    17.5610 o          1 P75      -0.616800
     55 O3          -6.9190     1.4970    18.0750 o          1 P75      -0.616800
@<TRIPOS>BOND
     1     1     2 1   
     2     1     3 2   
     3     1    23 1   
     4     2    32 1   
     5     2    33 1   
     6     2    34 1   
     7     3    25 1   
     8     3    35 1   
     9     4     5 1   
    10     4    25 1   
    11     4    26 1   
    12     4    36 1   
    13     5    13 1   
    14     5    37 1   
    15     5    38 1   
    16     6     7 ar  
    17     6    16 ar  
    18     6    53 1   
    19     7    19 ar  
    20     7    39 1   
    21     8    14 2   
    22     8    20 1   
    23     8    40 1   
    24     9    10 1   
    25     9    13 1   
    26     9    26 1   
    27     9    41 1   
    28    10    27 1   
    29    10    42 1   
    30    10    43 1   
    31    11    21 2   
    32    11    22 1   
    33    11    25 1   
    34    12    15 1   
    35    12    16 1   
    36    13    20 1   
    37    13    44 1   
    38    14    15 1   
    39    14    28 1   
    40    15    45 1   
    41    15    46 1   
    42    16    18 ar  
    43    17    18 ar  
    44    17    19 ar  
    45    17    47 1   
    46    18    48 1   
    47    19    30 1   
    48    20    29 1   
    49    22    23 1   
    50    22    49 1   
    51    23    24 2   
    52    27    50 1   
    53    28    29 2   
    54    30    31 1   
    55    30    54 2   
    56    30    55 2   
    57    31    51 1   
    58    31    52 1   
@<TRIPOS>SUBSTRUCTURE
     1 P75         1 TEMP              0 ****  ****    0 ROOT
