@<TRIPOS>MOLECULE
P76
   58    60     1     0     0
SMALL
No Charge or Current Charge


@<TRIPOS>ATOM
      1 N1           4.8610    -0.1070     0.1640 ns         1 P76      -0.490900
      2 C2           6.3460    -0.2190     0.2170 c3         1 P76      -0.022300
      3 C3           6.8690    -0.5260    -1.2130 c          1 P76       0.580100
      4 O4           6.2170    -1.1750    -2.0260 o          1 P76      -0.578100
      5 N5           8.1190     0.0040    -1.5230 ns         1 P76      -0.367400
      6 O6           8.6010     0.0230    -2.8900 oh         1 P76      -0.424100
      7 C7           4.0590     0.4700     1.1190 c          1 P76       0.636100
      8 O8           4.5360     0.9200     2.1490 o          1 P76      -0.636100
      9 N9           2.6760     0.4980     0.8510 n          1 P76      -0.398800
     10 C10          2.1360     0.1560    -0.5060 c6         1 P76       0.095500
     11 C11          0.6150    -0.1150    -0.5670 c6         1 P76      -0.101400
     12 C12         -0.1940     0.9730     0.1660 c6         1 P76      -0.016400
     13 C13          0.2780     1.0020     1.6320 c6         1 P76      -0.101400
     14 C14          1.7880     1.3100     1.7390 c6         1 P76       0.095500
     15 C15         -1.7090     0.7510     0.0460 ca         1 P76      -0.070300
     16 C16         -2.5150     1.7250    -0.5770 ca         1 P76      -0.108000
     17 C17         -3.9030     1.5340    -0.6940 ca         1 P76      -0.087000
     18 C18         -4.5010     0.3660    -0.1870 ca         1 P76       0.031000
     19 C19         -3.7030    -0.6100     0.4360 ca         1 P76      -0.087000
     20 C20         -2.3150    -0.4190     0.5520 ca         1 P76      -0.108000
     21 C21         -5.9170     0.1710    -0.3060 cg         1 P76      -0.108000
     22 C22         -7.1200     0.0030    -0.4190 ch         1 P76      -0.101000
     23 C23         -8.5230    -0.1950    -0.5690 ca         1 P76       0.027000
     24 C24         -9.1100    -1.4160    -0.1870 ca         1 P76      -0.087500
     25 C25        -10.4950    -1.6110    -0.3350 ca         1 P76      -0.113000
     26 C26        -11.2970    -0.5850    -0.8650 ca         1 P76      -0.101000
     27 C27        -10.7140     0.6350    -1.2470 ca         1 P76      -0.113000
     28 C28         -9.3290     0.8310    -1.0990 ca         1 P76      -0.087500
     29 C29          6.8020    -1.2980     1.2490 c3         1 P76       0.180300
     30 C30          8.3080    -1.6380     1.2180 c3         1 P76      -0.094100
     31 O31          6.4890    -0.8490     2.5710 oh         1 P76      -0.656000
     32 HN1          4.3920    -0.4710    -0.6570 hn         1 P76       0.309500
     33 H2           6.7610     0.7550     0.5090 h1         1 P76       0.097700
     34 HN5          8.5570     0.6670    -0.8840 hn         1 P76       0.345500
     35 HO6          9.5090    -0.3570    -2.8210 ho         1 P76       0.445000
     36 H10          2.3720     0.9880    -1.1850 h1         1 P76       0.059450
     37 H10A         2.6430    -0.7360    -0.8990 h1         1 P76       0.059450
     38 H11          0.2960    -0.1780    -1.6160 hc         1 P76       0.056450
     39 H11A         0.4110    -1.0990    -0.1230 hc         1 P76       0.056450
     40 H12          0.0540     1.9440    -0.2890 hc         1 P76       0.050700
     41 H13         -0.2900     1.7550     2.1960 hc         1 P76       0.056450
     42 H13A         0.0750     0.0360     2.1150 hc         1 P76       0.056450
     43 H14          2.0930     1.1740     2.7870 h1         1 P76       0.059450
     44 H14A         1.9480     2.3710     1.4970 h1         1 P76       0.059450
     45 H16         -2.0690     2.6340    -0.9740 ha         1 P76       0.114500
     46 H17         -4.5130     2.2940    -1.1770 ha         1 P76       0.121000
     47 H19         -4.1560    -1.5160     0.8300 ha         1 P76       0.121000
     48 H20         -1.7140    -1.1840     1.0370 ha         1 P76       0.114500
     49 H24         -8.4950    -2.2140     0.2240 ha         1 P76       0.119000
     50 H25        -10.9460    -2.5560    -0.0390 ha         1 P76       0.115000
     51 H26        -12.3690    -0.7360    -0.9790 ha         1 P76       0.114000
     52 H27        -11.3350     1.4290    -1.6570 ha         1 P76       0.115000
     53 H28         -8.8840     1.7780    -1.3970 ha         1 P76       0.119000
     54 H29          6.2490    -2.2230     1.0350 h1         1 P76       0.044700
     55 H30          8.9190    -0.7370     1.3510 hc         1 P76       0.049367
     56 H30A         8.5580    -2.3410     2.0220 hc         1 P76       0.049367
     57 H30B         8.5860    -2.1150     0.2700 hc         1 P76       0.049367
     58 HO31         5.7560    -0.1830     2.4680 ho         1 P76       0.455000
@<TRIPOS>BOND
     1     1     2 1   
     2     1     7 1   
     3     1    32 1   
     4     2     3 1   
     5     2    29 1   
     6     2    33 1   
     7     3     4 2   
     8     3     5 1   
     9     5     6 1   
    10     5    34 1   
    11     6    35 1   
    12     7     8 2   
    13     7     9 1   
    14     9    10 1   
    15     9    14 1   
    16    10    11 1   
    17    10    36 1   
    18    10    37 1   
    19    11    12 1   
    20    11    38 1   
    21    11    39 1   
    22    12    13 1   
    23    12    15 1   
    24    12    40 1   
    25    13    14 1   
    26    13    41 1   
    27    13    42 1   
    28    14    43 1   
    29    14    44 1   
    30    15    16 ar  
    31    15    20 ar  
    32    16    17 ar  
    33    16    45 1   
    34    17    18 ar  
    35    17    46 1   
    36    18    19 ar  
    37    18    21 1   
    38    19    20 ar  
    39    19    47 1   
    40    20    48 1   
    41    21    22 3   
    42    22    23 1   
    43    23    24 ar  
    44    23    28 ar  
    45    24    25 ar  
    46    24    49 1   
    47    25    26 ar  
    48    25    50 1   
    49    26    27 ar  
    50    26    51 1   
    51    27    28 ar  
    52    27    52 1   
    53    28    53 1   
    54    29    30 1   
    55    29    31 1   
    56    29    54 1   
    57    30    55 1   
    58    30    56 1   
    59    30    57 1   
    60    31    58 1   
@<TRIPOS>SUBSTRUCTURE
     1 P76         1 TEMP              0 ****  ****    0 ROOT
