@<TRIPOS>MOLECULE
P76
   58    60     1     0     0
SMALL
abcg2


@<TRIPOS>ATOM
      1 N1           4.3670    -0.1450    -0.3200 ns         1 P76      -0.490900
      2 C2           5.3230    -1.0120     0.3330 c3         1 P76      -0.022300
      3 C3           6.6350    -0.2720     0.5660 c          1 P76       0.580100
      4 O4           7.2030     0.3240    -0.3320 o          1 P76      -0.578100
      5 N5           7.1080    -0.3860     1.8170 ns         1 P76      -0.367400
      6 O6           8.2030     0.3300     2.1950 oh         1 P76      -0.424100
      7 C7           3.7480     0.8350     0.4290 c          1 P76       0.636100
      8 O8           3.9060     0.8920     1.6420 o          1 P76      -0.636100
      9 N9           2.9740     1.7150    -0.2600 n          1 P76      -0.398800
     10 C10          2.3980     1.4450    -1.5690 c6         1 P76       0.095500
     11 C11          0.9670     0.9380    -1.4350 c6         1 P76      -0.101400
     12 C12          0.1080     1.9260    -0.6380 c6         1 P76      -0.016400
     13 C13          0.7790     2.2460     0.7040 c6         1 P76      -0.101400
     14 C14          2.2140     2.7070     0.4830 c6         1 P76       0.095500
     15 C15         -1.3060     1.4420    -0.4640 ca         1 P76      -0.070300
     16 C16         -2.3780     2.2000    -0.9280 ca         1 P76      -0.108000
     17 C17         -3.6860     1.7700    -0.7730 ca         1 P76      -0.087000
     18 C18         -3.9550     0.5520    -0.1430 ca         1 P76       0.031000
     19 C19         -2.8840    -0.2140     0.3280 ca         1 P76      -0.087000
     20 C20         -1.5830     0.2290     0.1680 ca         1 P76      -0.108000
     21 C21         -5.2940     0.0990     0.0120 cg         1 P76      -0.108000
     22 C22         -6.4320    -0.2880     0.1390 ch         1 P76      -0.101000
     23 C23         -7.7710    -0.7450     0.2890 ca         1 P76       0.027000
     24 C24         -8.0280    -2.0150     0.8180 ca         1 P76      -0.087500
     25 C25         -9.3330    -2.4560     0.9620 ca         1 P76      -0.113000
     26 C26        -10.3940    -1.6430     0.5840 ca         1 P76      -0.101000
     27 C27        -10.1450    -0.3810     0.0580 ca         1 P76      -0.113000
     28 C28         -8.8430     0.0690    -0.0900 ca         1 P76      -0.087500
     29 C29          5.5420    -2.2500    -0.5520 c3         1 P76       0.180300
     30 C30          6.5060    -3.2360     0.0750 c3         1 P76      -0.094100
     31 O31          4.3140    -2.9100    -0.7520 oh         1 P76      -0.656000
     32 HN1          4.6190     0.1020    -1.2660 hn         1 P76       0.309500
     33 H2           4.8930    -1.3500     1.2790 h1         1 P76       0.097700
     34 HN5          6.5200    -0.6880     2.5820 hn         1 P76       0.345500
     35 HO6          8.9500    -0.2790     2.1510 ho         1 P76       0.445000
     36 H10          2.4120     2.3760    -2.1440 h1         1 P76       0.059450
     37 H10A         2.9940     0.7330    -2.1330 h1         1 P76       0.059450
     38 H11          0.5410     0.7880    -2.4300 hc         1 P76       0.056450
     39 H11A         0.9830    -0.0390    -0.9440 hc         1 P76       0.056450
     40 H12          0.0730     2.8600    -1.2110 hc         1 P76       0.050700
     41 H13          0.2210     3.0280     1.2240 hc         1 P76       0.056450
     42 H13A         0.7760     1.3640     1.3520 hc         1 P76       0.056450
     43 H14          2.7080     2.9210     1.4270 h1         1 P76       0.059450
     44 H14A         2.2150     3.6330    -0.1010 h1         1 P76       0.059450
     45 H16         -2.1870     3.1450    -1.4230 ha         1 P76       0.114500
     46 H17         -4.5030     2.3760    -1.1420 ha         1 P76       0.121000
     47 H19         -3.0770    -1.1580     0.8200 ha         1 P76       0.121000
     48 H20         -0.7720    -0.3850     0.5420 ha         1 P76       0.114500
     49 H24         -7.2020    -2.6490     1.1110 ha         1 P76       0.119000
     50 H25         -9.5240    -3.4390     1.3730 ha         1 P76       0.115000
     51 H26        -11.4120    -1.9910     0.6990 ha         1 P76       0.114000
     52 H27        -10.9690     0.2570    -0.2360 ha         1 P76       0.115000
     53 H28         -8.6490     1.0520    -0.5000 ha         1 P76       0.119000
     54 H29          5.9600    -1.9110    -1.5120 h1         1 P76       0.044700
     55 H30          6.1720    -3.5400     1.0690 hc         1 P76       0.049367
     56 H30A         6.5900    -4.1280    -0.5460 hc         1 P76       0.049367
     57 H30B         7.5050    -2.8120     0.1660 hc         1 P76       0.049367
     58 HO31         3.6620    -2.2470    -1.0120 ho         1 P76       0.455000
@<TRIPOS>BOND
     1     1     2 1   
     2     1     7 1   
     3     1    32 1   
     4     2     3 1   
     5     2    29 1   
     6     2    33 1   
     7     3     4 2   
     8     3     5 1   
     9     5     6 1   
    10     5    34 1   
    11     6    35 1   
    12     7     8 2   
    13     7     9 1   
    14     9    10 1   
    15     9    14 1   
    16    10    11 1   
    17    10    36 1   
    18    10    37 1   
    19    11    12 1   
    20    11    38 1   
    21    11    39 1   
    22    12    13 1   
    23    12    15 1   
    24    12    40 1   
    25    13    14 1   
    26    13    41 1   
    27    13    42 1   
    28    14    43 1   
    29    14    44 1   
    30    15    16 ar  
    31    15    20 ar  
    32    16    17 ar  
    33    16    45 1   
    34    17    18 ar  
    35    17    46 1   
    36    18    19 ar  
    37    18    21 1   
    38    19    20 ar  
    39    19    47 1   
    40    20    48 1   
    41    21    22 3   
    42    22    23 1   
    43    23    24 ar  
    44    23    28 ar  
    45    24    25 ar  
    46    24    49 1   
    47    25    26 ar  
    48    25    50 1   
    49    26    27 ar  
    50    26    51 1   
    51    27    28 ar  
    52    27    52 1   
    53    28    53 1   
    54    29    30 1   
    55    29    31 1   
    56    29    54 1   
    57    30    55 1   
    58    30    56 1   
    59    30    57 1   
    60    31    58 1   
@<TRIPOS>SUBSTRUCTURE
     1 P76         1 TEMP              0 ****  ****    0 ROOT
