@<TRIPOS>MOLECULE
P77
   49    52     1     0     0
SMALL
No Charge or Current Charge


@<TRIPOS>ATOM
      1 S           -4.0850     0.7470     1.3870 ss         1 P77       0.033000
      2 Cl          -1.8910    -4.1490    -2.0160 cl         1 P77      -0.202000
      3 C1          -2.4890    -2.8000    -1.0600 ca         1 P77       0.155000
      4 N1          -1.3280     0.5200     0.1470 na         1 P77      -0.090000
      5 C2          -3.7770    -2.8520    -0.5060 ca         1 P77      -0.132000
      6 N2           3.6990    -0.1920     0.4580 n3         1 P77      -0.720600
      7 C3          -4.2570    -1.7700     0.2510 ca         1 P77      -0.049000
      8 N3           6.5920     0.2300    -0.2020 n3         1 P77      -0.717600
      9 C4          -3.4450    -0.6400     0.4550 ca         1 P77      -0.137000
     10 C5          -2.1440    -0.5900    -0.0900 ca         1 P77       0.045000
     11 C6          -1.6740    -1.6760    -0.8550 ca         1 P77      -0.163000
     12 C7          -3.1630     2.0560     0.5880 ca         1 P77      -0.134000
     13 C8          -3.7200     3.3440     0.5040 ca         1 P77      -0.055000
     14 C9          -3.0170     4.3730    -0.1450 ca         1 P77      -0.135000
     15 C10         -1.7590     4.1150    -0.7140 ca         1 P77      -0.075000
     16 C11         -1.2000     2.8290    -0.6270 ca         1 P77      -0.160000
     17 C12         -1.8930     1.7930     0.0290 ca         1 P77       0.032000
     18 C13         -0.1260     0.3540     0.9930 c3         1 P77       0.071600
     19 C14          1.2010     0.2310     0.2120 c3         1 P77      -0.113400
     20 C15          2.4180     0.0870     1.1490 c3         1 P77       0.171800
     21 C16          4.1550     0.9080    -0.4540 c6         1 P77       0.165300
     22 C17          5.5050     0.5740    -1.1680 c6         1 P77       0.163800
     23 C18          6.1400    -0.8710     0.7020 c6         1 P77       0.163800
     24 C19          4.7930    -0.5330     1.4190 c6         1 P77       0.165300
     25 C20          7.8780    -0.0670    -0.8680 c3         1 P77       0.153100
     26 H2          -4.4030    -3.7250    -0.6680 ha         1 P77       0.134000
     27 H3          -5.2600    -1.8060     0.6710 ha         1 P77       0.129000
     28 H6          -0.6840    -1.6520    -1.2970 ha         1 P77       0.135000
     29 H8          -4.6980     3.5450     0.9360 ha         1 P77       0.125000
     30 H9          -3.4500     5.3690    -0.2120 ha         1 P77       0.119000
     31 H10         -1.2180     4.9110    -1.2210 ha         1 P77       0.114000
     32 H11         -0.2280     2.6430    -1.0750 ha         1 P77       0.117000
     33 H13         -0.0610     1.2130     1.6730 h1         1 P77       0.058200
     34 H13A        -0.2600    -0.5410     1.6140 h1         1 P77       0.058200
     35 H14          1.1620    -0.6410    -0.4490 hc         1 P77       0.059700
     36 H14A         1.3280     1.1140    -0.4220 hc         1 P77       0.059700
     37 H15          2.2030    -0.7350     1.8460 h1         1 P77       0.030200
     38 H15A         2.5090     1.0010     1.7530 h1         1 P77       0.030200
     39 H16          3.4040     1.1050    -1.2320 h1         1 P77       0.037200
     40 H16A         4.2810     1.8410     0.1150 h1         1 P77       0.037200
     41 H17          5.8000     1.4380    -1.7810 h1         1 P77       0.038450
     42 H17A         5.3340    -0.2660    -1.8580 h1         1 P77       0.038450
     43 H18          6.0070    -1.8010     0.1280 h1         1 P77       0.038450
     44 H18A         6.9040    -1.0730     1.4670 h1         1 P77       0.038450
     45 H19          4.9660     0.3080     2.1070 h1         1 P77       0.037200
     46 H19A         4.5020    -1.3960     2.0360 h1         1 P77       0.037200
     47 H20          8.2010     0.7830    -1.4830 h1         1 P77       0.031033
     48 H20A         8.6620    -0.2660    -0.1260 h1         1 P77       0.031033
     49 H20B         7.7880    -0.9480    -1.5190 h1         1 P77       0.031033
@<TRIPOS>BOND
     1     1     9 1   
     2     1    12 1   
     3     2     3 1   
     4     3     5 ar  
     5     3    11 ar  
     6     4    10 1   
     7     4    17 1   
     8     4    18 1   
     9     5     7 ar  
    10     5    26 1   
    11     6    20 1   
    12     6    21 1   
    13     6    24 1   
    14     7     9 ar  
    15     7    27 1   
    16     8    22 1   
    17     8    23 1   
    18     8    25 1   
    19     9    10 ar  
    20    10    11 ar  
    21    11    28 1   
    22    12    13 ar  
    23    12    17 ar  
    24    13    14 ar  
    25    13    29 1   
    26    14    15 ar  
    27    14    30 1   
    28    15    16 ar  
    29    15    31 1   
    30    16    17 ar  
    31    16    32 1   
    32    18    19 1   
    33    18    33 1   
    34    18    34 1   
    35    19    20 1   
    36    19    35 1   
    37    19    36 1   
    38    20    37 1   
    39    20    38 1   
    40    21    22 1   
    41    21    39 1   
    42    21    40 1   
    43    22    41 1   
    44    22    42 1   
    45    23    24 1   
    46    23    43 1   
    47    23    44 1   
    48    24    45 1   
    49    24    46 1   
    50    25    47 1   
    51    25    48 1   
    52    25    49 1   
@<TRIPOS>SUBSTRUCTURE
     1 P77         1 TEMP              0 ****  ****    0 ROOT
