@<TRIPOS>MOLECULE
P77
   49    52     1     0     0
SMALL
abcg2


@<TRIPOS>ATOM
      1 S           -4.3790     0.8590     0.3760 ss         1 P77       0.033000
      2 CL          -1.2380    -4.4710    -0.2760 cl         1 P77      -0.202000
      3 C1          -2.1040    -2.9730    -0.1780 ca         1 P77       0.155000
      4 N1          -1.4050     0.5480     0.7160 na         1 P77      -0.090000
      5 C2          -3.4460    -2.9430    -0.5020 ca         1 P77      -0.132000
      6 N2           3.5490    -0.1390     0.3560 n3         1 P77      -0.720600
      7 C3          -4.1060    -1.7270    -0.4000 ca         1 P77      -0.049000
      8 N3           6.2910     0.2230    -0.3800 n3         1 P77      -0.717600
      9 C4          -3.4450    -0.5880     0.0290 ca         1 P77      -0.137000
     10 C5          -2.0730    -0.6100     0.3170 ca         1 P77       0.045000
     11 C6          -1.4120    -1.8360     0.2080 ca         1 P77      -0.163000
     12 C7          -3.1630     2.0650    -0.0230 ca         1 P77      -0.134000
     13 C8          -3.5790     3.2960    -0.5060 ca         1 P77      -0.055000
     14 C9          -2.6720     4.3350    -0.6610 ca         1 P77      -0.135000
     15 C10         -1.3450     4.1140    -0.3370 ca         1 P77      -0.075000
     16 C11         -0.9180     2.8690     0.1060 ca         1 P77      -0.160000
     17 C12         -1.8160     1.8110     0.2680 ca         1 P77       0.032000
     18 C13         -0.0910     0.4140     1.3290 c3         1 P77       0.071600
     19 C14          1.1010     0.2680     0.3810 c3         1 P77      -0.113400
     20 C15          2.3700     0.0160     1.1850 c3         1 P77       0.171800
     21 C16          4.0330     1.1250    -0.1670 c6         1 P77       0.165300
     22 C17          5.2250     0.9100    -1.0800 c6         1 P77       0.163800
     23 C18          5.8090    -1.0370     0.1480 c6         1 P77       0.163800
     24 C19          4.6210    -0.8150     1.0640 c6         1 P77       0.165300
     25 C20          7.4540     0.0430    -1.2170 c3         1 P77       0.153100
     26 H2          -3.9720    -3.8330    -0.8140 ha         1 P77       0.134000
     27 H3          -5.1620    -1.6740    -0.6310 ha         1 P77       0.129000
     28 H6          -0.3590    -1.9280     0.4270 ha         1 P77       0.135000
     29 H8          -4.6260     3.4490    -0.7360 ha         1 P77       0.125000
     30 H9          -3.0050     5.2980    -1.0220 ha         1 P77       0.119000
     31 H10         -0.6170     4.9070    -0.4390 ha         1 P77       0.114000
     32 H11          0.1310     2.7480     0.3290 ha         1 P77       0.117000
     33 H13          0.0590     1.2770     1.9800 h1         1 P77       0.058200
     34 H13A        -0.1340    -0.4480     2.0000 h1         1 P77       0.058200
     35 H14          0.9560    -0.5590    -0.3180 hc         1 P77       0.059700
     36 H14A         1.2050     1.1600    -0.2380 hc         1 P77       0.059700
     37 H15          2.2350    -0.9100     1.7520 h1         1 P77       0.030200
     38 H15A         2.5010     0.8170     1.9330 h1         1 P77       0.030200
     39 H16          3.2470     1.6200    -0.7400 h1         1 P77       0.037200
     40 H16A         4.3170     1.8130     0.6490 h1         1 P77       0.037200
     41 H17          5.5910     1.8810    -1.4250 h1         1 P77       0.038450
     42 H17A         4.8990     0.3510    -1.9740 h1         1 P77       0.038450
     43 H18          5.5200    -1.7330    -0.6590 h1         1 P77       0.038450
     44 H18A         6.6110    -1.5200     0.7130 h1         1 P77       0.038450
     45 H19          4.9500    -0.2460     1.9500 h1         1 P77       0.037200
     46 H19A         4.2610    -1.7840     1.4180 h1         1 P77       0.037200
     47 H20          7.8260     1.0120    -1.5540 h1         1 P77       0.031033
     48 H20A         8.2510    -0.4430    -0.6520 h1         1 P77       0.031033
     49 H20B         7.2550    -0.5690    -2.1110 h1         1 P77       0.031033
@<TRIPOS>BOND
     1     1     9 1   
     2     1    12 1   
     3     2     3 1   
     4     3     5 ar  
     5     3    11 ar  
     6     4    10 1   
     7     4    17 1   
     8     4    18 1   
     9     5     7 ar  
    10     5    26 1   
    11     6    20 1   
    12     6    21 1   
    13     6    24 1   
    14     7     9 ar  
    15     7    27 1   
    16     8    22 1   
    17     8    23 1   
    18     8    25 1   
    19     9    10 ar  
    20    10    11 ar  
    21    11    28 1   
    22    12    13 ar  
    23    12    17 ar  
    24    13    14 ar  
    25    13    29 1   
    26    14    15 ar  
    27    14    30 1   
    28    15    16 ar  
    29    15    31 1   
    30    16    17 ar  
    31    16    32 1   
    32    18    19 1   
    33    18    33 1   
    34    18    34 1   
    35    19    20 1   
    36    19    35 1   
    37    19    36 1   
    38    20    37 1   
    39    20    38 1   
    40    21    22 1   
    41    21    39 1   
    42    21    40 1   
    43    22    41 1   
    44    22    42 1   
    45    23    24 1   
    46    23    43 1   
    47    23    44 1   
    48    24    45 1   
    49    24    46 1   
    50    25    47 1   
    51    25    48 1   
    52    25    49 1   
@<TRIPOS>SUBSTRUCTURE
     1 P77         1 TEMP              0 ****  ****    0 ROOT
