@<TRIPOS>MOLECULE
P78
   60    63     1     0     0
SMALL
bcc


@<TRIPOS>ATOM
      1 C1           1.9070    -2.6540     0.1050 cc         1 P78      -0.088400
      2 O1           5.9970     3.0410    -1.7490 o          1 P78      -0.586300
      3 S1           6.1070     2.0700    -0.6580 s6         1 P78       1.002000
      4 C2          -7.3270     2.4290    -0.7810 ca         1 P78      -0.122000
      5 S2           0.1750    -2.4730     0.1260 ss         1 P78       0.011200
      6 C3           0.2960    -0.7630     0.3200 cc         1 P78       0.155500
      7 C4           1.6070    -0.3440     0.3190 cd         1 P78      -0.274600
      8 C5           2.5120    -1.4480     0.2130 cd         1 P78      -0.106000
      9 C6           2.5170    -4.0290    -0.0160 c3         1 P78       0.028300
     10 C7           2.1050    -4.8860     1.1880 c3         1 P78      -0.084433
     11 C8           2.0350    -4.6960    -1.3100 c3         1 P78      -0.084433
     12 C9           4.0410    -3.9170    -0.0490 c3         1 P78      -0.084433
     13 C10          1.9780     1.0670     0.5180 c          1 P78       0.732700
     14 C11         -8.6080     0.1430     0.1860 ca         1 P78      -0.109000
     15 O11          1.2790     1.8020     1.2120 o          1 P78      -0.628100
     16 C12         -9.3380     1.1620    -0.3630 ca         1 P78      -0.129000
     17 N12         -0.8010     0.0450     0.4740 ns         1 P78      -0.462100
     18 C13         -2.0950    -0.3780     0.3320 c          1 P78       0.793100
     19 C14         -8.6890     2.3160    -0.8520 ca         1 P78      -0.118000
     20 O14         -2.3690    -1.5370     0.0750 o          1 P78      -0.604100
     21 N15         -3.0100     0.6150     0.5130 ns         1 P78      -0.481100
     22 C16         -4.3990     0.4580     0.4080 ca         1 P78       0.078600
     23 C17         -5.0520    -0.6920     0.9180 ca         1 P78      -0.123000
     24 C18         -6.4110    -0.7950     0.8400 ca         1 P78      -0.098000
     25 C19         -7.2000     0.2310     0.2710 ca         1 P78      -0.050000
     26 C20         -6.5460     1.3910    -0.2180 ca         1 P78      -0.014000
     27 C21         -5.1390     1.4730    -0.1440 ca         1 P78      -0.168000
     28 N26          3.1270     1.5180    -0.0580 n          1 P78      -0.490800
     29 C27          3.6690     2.8060     0.3340 c6         1 P78       0.115000
     30 C28          5.1390     2.6730     0.7190 c6         1 P78      -0.206600
     31 C31          5.1680     0.6160    -1.1140 c6         1 P78      -0.206600
     32 C32          3.6970     0.9760    -1.2780 c6         1 P78       0.115000
     33 H2          -6.8310     3.3140    -1.1590 ha         1 P78       0.130000
     34 H5           3.5850    -1.3370     0.2550 ha         1 P78       0.149000
     35 H7           1.0220    -4.9960     1.2580 hc         1 P78       0.038256
     36 H7A          2.5320    -5.8880     1.1030 hc         1 P78       0.038256
     37 H7B          2.4590    -4.4470     2.1220 hc         1 P78       0.038256
     38 H8           2.3170    -4.1060    -2.1840 hc         1 P78       0.038256
     39 H8A          2.4810    -5.6870    -1.4140 hc         1 P78       0.038256
     40 H8B          0.9510    -4.8240    -1.3260 hc         1 P78       0.038256
     41 H9           4.4350    -3.4750     0.8670 hc         1 P78       0.038256
     42 H9A          4.4800    -4.9110    -0.1510 hc         1 P78       0.038256
     43 H9B          4.3840    -3.3190    -0.8950 hc         1 P78       0.038256
     44 H11         -9.1020    -0.7440     0.5660 ha         1 P78       0.132000
     45 H12        -10.4160     1.0870    -0.4240 ha         1 P78       0.132000
     46 HN12        -0.5940     0.9890     0.7760 hn         1 P78       0.357500
     47 H14         -9.2750     3.1160    -1.2840 ha         1 P78       0.131000
     48 HN15        -2.6750     1.5670     0.5250 hn         1 P78       0.324500
     49 H17         -4.4830    -1.4820     1.3850 ha         1 P78       0.155000
     50 H18         -6.9020    -1.6760     1.2350 ha         1 P78       0.136000
     51 H21         -4.6430     2.3540    -0.5360 ha         1 P78       0.131000
     52 H27          3.5490     3.5340    -0.4730 h1         1 P78       0.076200
     53 H27A         3.1240     3.1860     1.1930 h1         1 P78       0.076200
     54 H28          5.2720     1.9720     1.5440 h1         1 P78       0.111450
     55 H28A         5.5650     3.6390     0.9970 h1         1 P78       0.111450
     56 H31          5.5910     0.2490    -2.0510 h1         1 P78       0.111450
     57 H31A         5.3270    -0.1300    -0.3340 h1         1 P78       0.111450
     58 H32          3.1470     0.0990    -1.6050 h1         1 P78       0.076200
     59 H32A         3.5900     1.7180    -2.0750 h1         1 P78       0.076200
     60 O33          7.4390     1.6790    -0.2050 o          1 P78      -0.586300
@<TRIPOS>BOND
     1     1     5 1   
     2     1     8 2   
     3     1     9 1   
     4     2     3 2   
     5     3    30 1   
     6     3    31 1   
     7     3    60 2   
     8     4    19 ar  
     9     4    26 ar  
    10     4    33 1   
    11     5     6 1   
    12     6     7 2   
    13     6    17 1   
    14     7     8 1   
    15     7    13 1   
    16     8    34 1   
    17     9    10 1   
    18     9    11 1   
    19     9    12 1   
    20    10    35 1   
    21    10    36 1   
    22    10    37 1   
    23    11    38 1   
    24    11    39 1   
    25    11    40 1   
    26    12    41 1   
    27    12    42 1   
    28    12    43 1   
    29    13    15 2   
    30    13    28 1   
    31    14    16 ar  
    32    14    25 ar  
    33    14    44 1   
    34    16    19 ar  
    35    16    45 1   
    36    17    18 1   
    37    17    46 1   
    38    18    20 2   
    39    18    21 1   
    40    19    47 1   
    41    21    22 1   
    42    21    48 1   
    43    22    23 ar  
    44    22    27 ar  
    45    23    24 ar  
    46    23    49 1   
    47    24    25 ar  
    48    24    50 1   
    49    25    26 ar  
    50    26    27 ar  
    51    27    51 1   
    52    28    29 1   
    53    28    32 1   
    54    29    30 1   
    55    29    52 1   
    56    29    53 1   
    57    30    54 1   
    58    30    55 1   
    59    31    32 1   
    60    31    56 1   
    61    31    57 1   
    62    32    58 1   
    63    32    59 1   
@<TRIPOS>SUBSTRUCTURE
     1 P78         1 TEMP              0 ****  ****    0 ROOT
