@<TRIPOS>MOLECULE
P78
   60    63     1     0     0
SMALL
No Charge or Current Charge


@<TRIPOS>ATOM
      1 C1           2.0760    -2.9340     0.1810 cc         1 P78      -0.233300
      2 O1           5.5840     3.3230    -1.9410 o          1 P78      -0.515500
      3 S1           5.8940     2.4420    -0.8090 s6         1 P78       1.082000
      4 C2          -7.1490     2.9530     0.1030 ca         1 P78      -0.104000
      5 S2           0.3150    -2.9880     0.1190 ss         1 P78       0.301000
      6 C3           0.2140    -1.2210     0.1170 cc         1 P78       0.010600
      7 C4           1.4680    -0.6380     0.1080 cd         1 P78      -0.274600
      8 C5           2.5050    -1.6270     0.1730 cd         1 P78      -0.088000
      9 C6           2.9010    -4.2120     0.2420 c3         1 P78       0.028300
     10 C7           2.5310    -5.0070     1.5200 c3         1 P78      -0.084433
     11 C8           2.6070    -5.0780    -1.0100 c3         1 P78      -0.084433
     12 C9           4.4220    -3.9030     0.2770 c3         1 P78      -0.084433
     13 C10          1.6740     0.8520     0.1050 c          1 P78       0.665700
     14 C11         -8.7940     0.6720     0.0360 ca         1 P78      -0.091000
     15 O11          0.7660     1.6490     0.3180 o          1 P78      -0.628100
     16 C12         -9.3690     1.9540     0.0550 ca         1 P78      -0.111000
     17 N12         -0.9530    -0.4620     0.1060 ns         1 P78      -0.395100
     18 C13         -2.2670    -0.8820     0.0820 c          1 P78       0.659100
     19 C14         -8.5470     3.0940     0.0890 ca         1 P78      -0.100000
     20 O14         -2.5930    -2.0600     0.0540 o          1 P78      -0.604100
     21 N15         -3.1540     0.1850     0.0940 ns         1 P78      -0.155000
     22 C16         -4.5760     0.2470     0.0780 ca         1 P78      -0.014000
     23 C17         -5.4100    -0.8930     0.0440 ca         1 P78      -0.105000
     24 C18         -6.8090    -0.7520     0.0300 ca         1 P78      -0.080000
     25 C19         -7.3930     0.5270     0.0500 ca         1 P78      -0.050000
     26 C20         -6.5680     1.6710     0.0830 ca         1 P78      -0.014000
     27 C21         -5.1690     1.5250     0.0970 ca         1 P78      -0.150000
     28 N26          2.9910     1.3070    -0.1340 n          1 P78      -0.423800
     29 C27          3.3370     2.7040     0.2430 c6         1 P78       0.115000
     30 C28          4.8330     2.8750     0.5760 c6         1 P78      -0.317400
     31 C31          5.2430     0.8020    -1.1490 c6         1 P78      -0.317400
     32 C32          3.7170     0.8330    -1.3480 c6         1 P78       0.115000
     33 H2          -6.5190     3.8400     0.1290 ha         1 P78       0.112000
     34 H5           3.5560    -1.3630     0.2370 ha         1 P78       0.131000
     35 H7           1.4770    -5.3090     1.5110 hc         1 P78       0.038256
     36 H7A          3.1370    -5.9160     1.6060 hc         1 P78       0.038256
     37 H7B          2.7010    -4.3990     2.4170 hc         1 P78       0.038256
     38 H8           2.8300    -4.5210    -1.9280 hc         1 P78       0.038256
     39 H8A          3.2170    -5.9900    -1.0090 hc         1 P78       0.038256
     40 H8B          1.5540    -5.3830    -1.0470 hc         1 P78       0.038256
     41 H9           4.6810    -3.3080     1.1610 hc         1 P78       0.038256
     42 H9A          5.0100    -4.8280     0.3140 hc         1 P78       0.038256
     43 H9B          4.7300    -3.3460    -0.6160 hc         1 P78       0.038256
     44 H11         -9.4360    -0.2060     0.0100 ha         1 P78       0.114000
     45 H12        -10.4510     2.0650     0.0450 ha         1 P78       0.114000
     46 HN12        -0.8280     0.5450     0.1340 hn         1 P78       0.357500
     47 H14         -8.9940     4.0860     0.1040 ha         1 P78       0.113000
     48 HN15        -2.7130     1.0940     0.1180 hn         1 P78       0.158000
     49 H17         -4.9990    -1.8970     0.0280 ha         1 P78       0.137000
     50 H18         -7.4370    -1.6390     0.0040 ha         1 P78       0.118000
     51 H21         -4.5380     2.4100     0.1230 ha         1 P78       0.113000
     52 H27          3.0510     3.3840    -0.5740 h1         1 P78       0.076200
     53 H27A         2.7510     3.0020     1.1250 h1         1 P78       0.076200
     54 H28          5.1280     2.2180     1.4030 h1         1 P78       0.111450
     55 H28A         5.0710     3.9150     0.8300 h1         1 P78       0.111450
     56 H31          5.7590     0.4500    -2.0510 h1         1 P78       0.111450
     57 H31A         5.5220     0.1740    -0.2940 h1         1 P78       0.111450
     58 H32          3.3680    -0.1590    -1.6630 h1         1 P78       0.076200
     59 H32A         3.4740     1.5050    -2.1850 h1         1 P78       0.076200
     60 O33          7.2760     2.3170    -0.3300 o          1 P78      -0.515500
@<TRIPOS>BOND
     1     1     5 1   
     2     1     8 2   
     3     1     9 1   
     4     2     3 2   
     5     3    30 1   
     6     3    31 1   
     7     3    60 2   
     8     4    19 ar  
     9     4    26 ar  
    10     4    33 1   
    11     5     6 1   
    12     6     7 2   
    13     6    17 1   
    14     7     8 1   
    15     7    13 1   
    16     8    34 1   
    17     9    10 1   
    18     9    11 1   
    19     9    12 1   
    20    10    35 1   
    21    10    36 1   
    22    10    37 1   
    23    11    38 1   
    24    11    39 1   
    25    11    40 1   
    26    12    41 1   
    27    12    42 1   
    28    12    43 1   
    29    13    15 2   
    30    13    28 1   
    31    14    16 ar  
    32    14    25 ar  
    33    14    44 1   
    34    16    19 ar  
    35    16    45 1   
    36    17    18 1   
    37    17    46 1   
    38    18    20 2   
    39    18    21 1   
    40    19    47 1   
    41    21    22 1   
    42    21    48 1   
    43    22    23 ar  
    44    22    27 ar  
    45    23    24 ar  
    46    23    49 1   
    47    24    25 ar  
    48    24    50 1   
    49    25    26 ar  
    50    26    27 ar  
    51    27    51 1   
    52    28    29 1   
    53    28    32 1   
    54    29    30 1   
    55    29    52 1   
    56    29    53 1   
    57    30    54 1   
    58    30    55 1   
    59    31    32 1   
    60    31    56 1   
    61    31    57 1   
    62    32    58 1   
    63    32    59 1   
@<TRIPOS>SUBSTRUCTURE
     1 P78         1 TEMP              0 ****  ****    0 ROOT
