@<TRIPOS>MOLECULE
P79
   63    66     1     0     0
SMALL
bcc


@<TRIPOS>ATOM
      1 C1          -0.4280    -3.8290     0.8400 cc         1 P79      -0.270300
      2 C2           0.6260    -4.6570     0.3980 cc         1 P79       0.337600
      3 N3           1.4390    -2.7160     0.6240 na         1 P79       0.104400
      4 N4           1.7430    -3.9620     0.2760 nd         1 P79      -0.500800
      5 C5           0.5650    -6.1350     0.1110 c3         1 P79      -0.071300
      6 C6           0.1390    -2.5880     0.9660 cd         1 P79       0.038300
      7 C7           2.4010    -1.6570     0.5790 c3         1 P79      -0.022700
      8 C8           2.1120    -0.7260    -0.5990 c          1 P79       0.647100
      9 N9           2.7020     0.4950    -0.5810 n          1 P79      -0.489800
     10 O10          1.3920    -1.0940    -1.5050 o          1 P79      -0.528100
     11 C11         -1.2530    -0.6560     0.5800 c          1 P79       0.797100
     12 N12         -1.5610     0.5730     1.0960 ns         1 P79      -0.498100
     13 O13         -1.6850    -1.0920    -0.4660 o          1 P79      -0.565100
     14 C14         -2.4470     1.5220     0.5780 ca         1 P79       0.066600
     15 C15         -2.3780     2.8100     1.1700 ca         1 P79      -0.168000
     16 C16         -3.2020     3.8160     0.7610 ca         1 P79      -0.083000
     17 C17         -4.1450     3.6090    -0.2720 ca         1 P79      -0.059000
     18 C18         -4.2110     2.3250    -0.8690 ca         1 P79      -0.014000
     19 C19         -3.3540     1.2900    -0.4280 ca         1 P79      -0.144000
     20 N20         -0.3620    -1.3510     1.3630 ns         1 P79      -0.512100
     21 C21         -0.5340    -6.3960    -0.9250 c3         1 P79      -0.080433
     22 C22          1.9010    -6.6440    -0.4280 c3         1 P79      -0.080433
     23 C23          0.2280    -6.8780     1.4100 c3         1 P79      -0.080433
     24 C24         -5.0120     4.6300    -0.7220 ca         1 P79      -0.110000
     25 C25         -5.9130     4.3880    -1.7230 ca         1 P79      -0.131000
     26 C26         -5.9830     3.1110    -2.3180 ca         1 P79      -0.121000
     27 C27         -5.1530     2.1050    -1.9020 ca         1 P79      -0.118000
     28 C28          2.3080     1.4900    -1.5620 c6         1 P79       0.113000
     29 C29          1.2750     2.4530    -0.9800 c6         1 P79      -0.219600
     30 S30          1.9420     3.2960     0.4530 s6         1 P79       1.002000
     31 C31          2.5620     1.9170     1.4160 c6         1 P79      -0.219600
     32 C32          3.4450     1.0280     0.5450 c6         1 P79       0.113000
     33 O33          0.8680     3.9620     1.1820 o          1 P79      -0.585800
     34 O34          3.0930     4.0870     0.0140 o          1 P79      -0.585800
     35 H1          -1.4530    -4.0950     1.0400 ha         1 P79       0.172000
     36 H7           2.3920    -1.1300     1.5320 h1         1 P79       0.080700
     37 H7A          3.3930    -2.0970     0.4690 h1         1 P79       0.080700
     38 HN12        -1.1260     0.8340     1.9680 hn         1 P79       0.309500
     39 H15         -1.6530     2.9940     1.9520 ha         1 P79       0.139000
     40 H16         -3.1320     4.7900     1.2280 ha         1 P79       0.138000
     41 H19         -3.4360     0.3220    -0.8960 ha         1 P79       0.167000
     42 HN20        -0.1770    -1.0510     2.3090 hn         1 P79       0.318500
     43 H21         -0.3090    -5.8980    -1.8700 hc         1 P79       0.037033
     44 H21A        -0.6240    -7.4660    -1.1240 hc         1 P79       0.037033
     45 H21B        -1.5070    -6.0410    -0.5810 hc         1 P79       0.037033
     46 H22          2.7050    -6.5080     0.2960 hc         1 P79       0.037033
     47 H22A         1.8270    -7.7090    -0.6510 hc         1 P79       0.037033
     48 H22B         2.1860    -6.1290    -1.3460 hc         1 P79       0.037033
     49 H23         -0.7250    -6.5480     1.8290 hc         1 P79       0.037033
     50 H23A         0.1550    -7.9520     1.2290 hc         1 P79       0.037033
     51 H23B         0.9990    -6.7180     2.1650 hc         1 P79       0.037033
     52 H24         -4.9530     5.6090    -0.2620 ha         1 P79       0.130000
     53 H25         -6.5760     5.1740    -2.0620 ha         1 P79       0.131000
     54 H26         -6.7000     2.9300    -3.1090 ha         1 P79       0.131000
     55 H27         -5.2100     1.1250    -2.3610 ha         1 P79       0.136000
     56 H28          3.1920     2.0380    -1.8930 h1         1 P79       0.081200
     57 H28A         1.8830     1.0040    -2.4350 h1         1 P79       0.081200
     58 H29          1.0030     3.2310    -1.6960 h1         1 P79       0.112450
     59 H29A         0.3690     1.9310    -0.6660 h1         1 P79       0.112450
     60 H31          3.1150     2.3440     2.2540 h1         1 P79       0.112450
     61 H31A         1.6990     1.3740     1.8070 h1         1 P79       0.112450
     62 H32          3.8760     0.2360     1.1510 h1         1 P79       0.081200
     63 H32A         4.2940     1.6000     0.1660 h1         1 P79       0.081200
@<TRIPOS>BOND
     1     1     2 1   
     2     1     6 2   
     3     1    35 1   
     4     2     4 2   
     5     2     5 1   
     6     3     4 1   
     7     3     6 1   
     8     3     7 1   
     9     5    21 1   
    10     5    22 1   
    11     5    23 1   
    12     6    20 1   
    13     7     8 1   
    14     7    36 1   
    15     7    37 1   
    16     8     9 1   
    17     8    10 2   
    18     9    28 1   
    19     9    32 1   
    20    11    12 1   
    21    11    13 2   
    22    11    20 1   
    23    12    14 1   
    24    12    38 1   
    25    14    15 ar  
    26    14    19 ar  
    27    15    16 ar  
    28    15    39 1   
    29    16    17 ar  
    30    16    40 1   
    31    17    18 ar  
    32    17    24 ar  
    33    18    19 ar  
    34    18    27 ar  
    35    19    41 1   
    36    20    42 1   
    37    21    43 1   
    38    21    44 1   
    39    21    45 1   
    40    22    46 1   
    41    22    47 1   
    42    22    48 1   
    43    23    49 1   
    44    23    50 1   
    45    23    51 1   
    46    24    25 ar  
    47    24    52 1   
    48    25    26 ar  
    49    25    53 1   
    50    26    27 ar  
    51    26    54 1   
    52    27    55 1   
    53    28    29 1   
    54    28    56 1   
    55    28    57 1   
    56    29    30 1   
    57    29    58 1   
    58    29    59 1   
    59    30    31 1   
    60    30    33 2   
    61    30    34 2   
    62    31    32 1   
    63    31    60 1   
    64    31    61 1   
    65    32    62 1   
    66    32    63 1   
@<TRIPOS>SUBSTRUCTURE
     1 P79         1 TEMP              0 ****  ****    0 ROOT
