@<TRIPOS>MOLECULE
P79
   63    66     1     0     0
SMALL
No Charge or Current Charge


@<TRIPOS>ATOM
      1 C1          -0.1710    -3.5970     0.1150 cc         1 P79      -0.187000
      2 C2           0.7640    -4.6450     0.2110 cc         1 P79       0.272300
      3 N3           1.8290    -2.8430     0.5660 na         1 P79       0.125800
      4 N4           1.9860    -4.2200     0.4880 nd         1 P79      -0.500800
      5 C5           0.3790    -6.1110     0.0140 c3         1 P79      -0.071300
      6 C6           0.5050    -2.4420     0.3460 cd         1 P79      -0.012400
      7 C7           2.9700    -1.9700     0.8700 c3         1 P79       0.006600
      8 C8           3.2000    -0.9390    -0.2450 c          1 P79       0.580100
      9 N9           2.8210     0.4140    -0.0220 n          1 P79      -0.422800
     10 O10          3.6070    -1.3010    -1.3420 o          1 P79      -0.528100
     11 C11         -1.2700    -0.6880     0.1300 c          1 P79       0.663100
     12 N12         -1.3570     0.6900     0.2640 ns         1 P79      -0.172000
     13 O13         -2.2040    -1.4200    -0.1590 o          1 P79      -0.565100
     14 C14         -2.4310     1.6030     0.0810 ca         1 P79      -0.026000
     15 C15         -2.2090     2.9470     0.4360 ca         1 P79      -0.150000
     16 C16         -3.2190     3.9100     0.2770 ca         1 P79      -0.065000
     17 C17         -4.4700     3.5380    -0.2440 ca         1 P79      -0.059000
     18 C18         -4.7050     2.1950    -0.6090 ca         1 P79      -0.014000
     19 C19         -3.6880     1.2340    -0.4470 ca         1 P79      -0.126000
     20 N20          0.0140    -1.1410     0.3680 ns         1 P79      -0.445100
     21 C21         -0.2070    -6.3070    -1.4100 c3         1 P79      -0.080433
     22 C22          1.6070    -7.0540     0.1720 c3         1 P79      -0.080433
     23 C23         -0.6860    -6.5140     1.0680 c3         1 P79      -0.080433
     24 C24         -5.4880     4.4990    -0.4070 ca         1 P79      -0.092000
     25 C25         -6.7360     4.1200    -0.9310 ca         1 P79      -0.113000
     26 C26         -6.9700     2.7830    -1.2950 ca         1 P79      -0.103000
     27 C27         -5.9570     1.8220    -1.1350 ca         1 P79      -0.100000
     28 C28          2.7610     1.3140    -1.2130 c6         1 P79       0.113000
     29 C29          1.8530     2.5440    -1.0240 c6         1 P79      -0.330400
     30 S30          2.3830     3.5730     0.3460 s6         1 P79       1.082000
     31 C31          2.3980     2.3060     1.6160 c6         1 P79      -0.330400
     32 C32          3.2810     1.1070     1.2210 c6         1 P79       0.113000
     33 O33          1.3260     4.5420     0.6520 o          1 P79      -0.515000
     34 O34          3.7570     4.0270     0.1030 o          1 P79      -0.515000
     35 H1          -1.2250    -3.7230    -0.0990 ha         1 P79       0.154000
     36 H7           2.7690    -1.4830     1.8260 h1         1 P79       0.080700
     37 H7A          3.8810    -2.5700     0.9710 h1         1 P79       0.080700
     38 HN12        -0.4950     1.1360     0.5430 hn         1 P79       0.143000
     39 H15         -1.2470     3.2510     0.8420 ha         1 P79       0.121000
     40 H16         -3.0270     4.9430     0.5600 ha         1 P79       0.120000
     41 H19         -3.8920     0.2100    -0.7440 ha         1 P79       0.149000
     42 HN20         0.6680    -0.3950     0.5730 hn         1 P79       0.318500
     43 H21          0.5210    -6.0070    -2.1740 hc         1 P79       0.037033
     44 H21A        -0.4700    -7.3570    -1.5860 hc         1 P79       0.037033
     45 H21B        -1.1140    -5.7080    -1.5550 hc         1 P79       0.037033
     46 H22          2.0470    -6.9630     1.1730 hc         1 P79       0.037033
     47 H22A         1.3180    -8.1030     0.0280 hc         1 P79       0.037033
     48 H22B         2.3840    -6.8170    -0.5650 hc         1 P79       0.037033
     49 H23         -1.6000    -5.9170     0.9610 hc         1 P79       0.037033
     50 H23A        -0.9630    -7.5700     0.9640 hc         1 P79       0.037033
     51 H23B        -0.3020    -6.3630     2.0850 hc         1 P79       0.037033
     52 H24         -5.3130     5.5360    -0.1280 ha         1 P79       0.112000
     53 H25         -7.5200     4.8630    -1.0560 ha         1 P79       0.113000
     54 H26         -7.9360     2.4920    -1.7010 ha         1 P79       0.113000
     55 H27         -6.1470     0.7900    -1.4190 ha         1 P79       0.118000
     56 H28          3.7820     1.6400    -1.4690 h1         1 P79       0.081200
     57 H28A         2.3860     0.7490    -2.0800 h1         1 P79       0.081200
     58 H29          1.8690     3.1900    -1.9100 h1         1 P79       0.112450
     59 H29A         0.8200     2.2500    -0.8090 h1         1 P79       0.112450
     60 H31          2.7750     2.7950     2.5220 h1         1 P79       0.112450
     61 H31A         1.3550     2.0050     1.7700 h1         1 P79       0.112450
     62 H32          3.3170     0.4200     2.0750 h1         1 P79       0.081200
     63 H32A         4.3160     1.4500     1.0690 h1         1 P79       0.081200
@<TRIPOS>BOND
     1     1     2 1   
     2     1     6 2   
     3     1    35 1   
     4     2     4 2   
     5     2     5 1   
     6     3     4 1   
     7     3     6 1   
     8     3     7 1   
     9     5    21 1   
    10     5    22 1   
    11     5    23 1   
    12     6    20 1   
    13     7     8 1   
    14     7    36 1   
    15     7    37 1   
    16     8     9 1   
    17     8    10 2   
    18     9    28 1   
    19     9    32 1   
    20    11    12 1   
    21    11    13 2   
    22    11    20 1   
    23    12    14 1   
    24    12    38 1   
    25    14    15 ar  
    26    14    19 ar  
    27    15    16 ar  
    28    15    39 1   
    29    16    17 ar  
    30    16    40 1   
    31    17    18 ar  
    32    17    24 ar  
    33    18    19 ar  
    34    18    27 ar  
    35    19    41 1   
    36    20    42 1   
    37    21    43 1   
    38    21    44 1   
    39    21    45 1   
    40    22    46 1   
    41    22    47 1   
    42    22    48 1   
    43    23    49 1   
    44    23    50 1   
    45    23    51 1   
    46    24    25 ar  
    47    24    52 1   
    48    25    26 ar  
    49    25    53 1   
    50    26    27 ar  
    51    26    54 1   
    52    27    55 1   
    53    28    29 1   
    54    28    56 1   
    55    28    57 1   
    56    29    30 1   
    57    29    58 1   
    58    29    59 1   
    59    30    31 1   
    60    30    33 2   
    61    30    34 2   
    62    31    32 1   
    63    31    60 1   
    64    31    61 1   
    65    32    62 1   
    66    32    63 1   
@<TRIPOS>SUBSTRUCTURE
     1 P79         1 TEMP              0 ****  ****    0 ROOT
