@<TRIPOS>MOLECULE
P7A
   58    61     1     0     0
SMALL
No Charge or Current Charge


@<TRIPOS>ATOM
      1 C1           1.6740    -1.0370    -0.3590 c          1 P7A       0.667100
      2 N1          -2.2990     0.3530     0.3480 nh         1 P7A      -0.769400
      3 O1           2.0880    -2.1710    -0.5500 o          1 P7A      -0.604100
      4 S1          -3.1940    -2.2910     0.4820 ss         1 P7A       0.140000
      5 C2          -1.9980    -1.0080     0.2750 cc         1 P7A       0.019000
      6 N2           2.4660     0.1010    -0.3750 ns         1 P7A      -0.185000
      7 S2          -2.5650     3.4170     0.7720 s6         1 P7A       1.084000
      8 C3           3.8500     0.2980    -0.6540 ca         1 P7A      -0.023000
      9 O3          -3.7730     3.7540     0.0090 o          1 P7A      -0.516500
     10 C4           4.4740     1.5160    -0.2690 ca         1 P7A      -0.046000
     11 C5           5.8460     1.7250    -0.5570 ca         1 P7A      -0.028000
     12 C6           6.5880     0.7360    -1.2240 ca         1 P7A      -0.104000
     13 C7           5.9720    -0.4600    -1.6140 ca         1 P7A      -0.095000
     14 C8           4.6140    -0.6770    -1.3340 ca         1 P7A      -0.097000
     15 N9           0.3570    -0.7320    -0.0880 ns         1 P7A      -0.402100
     16 C10         -0.7540    -1.5500     0.0430 cd         1 P7A       0.100600
     17 C13         -1.9830    -3.5490     0.1990 cc         1 P7A      -0.146300
     18 C14         -0.7460    -2.9750    -0.0040 cd         1 P7A      -0.143000
     19 C16         -2.3640    -5.0230     0.2200 c3         1 P7A       0.020300
     20 C17         -2.9490    -5.3870     1.6090 c3         1 P7A      -0.085767
     21 C18         -3.4250    -5.2980    -0.8760 c3         1 P7A      -0.085767
     22 C19         -1.1340    -5.9300    -0.0480 c3         1 P7A      -0.085767
     23 C20         -3.4070     0.8320     1.2070 c6         1 P7A       0.201300
     24 C21         -2.9590     2.1010     1.9370 c6         1 P7A      -0.304900
     25 C23         -1.4150     2.5460    -0.3080 c6         1 P7A      -0.304900
     26 C24         -2.0330     1.2390    -0.8120 c6         1 P7A       0.201300
     27 C31          3.7590     2.5340     0.4080 ca         1 P7A      -0.103000
     28 C32          4.3980     3.7290     0.7820 ca         1 P7A      -0.104000
     29 C33          5.7550     3.9260     0.4900 ca         1 P7A      -0.106000
     30 C34          6.4780     2.9250    -0.1780 ca         1 P7A      -0.095000
     31 HN2          1.9730     0.9560    -0.1600 hn         1 P7A       0.152000
     32 H6           7.6410     0.8950    -1.4470 ha         1 P7A       0.116000
     33 H7           6.5470    -1.2200    -2.1380 ha         1 P7A       0.118000
     34 H8           4.1680    -1.6080    -1.6710 ha         1 P7A       0.129000
     35 HN9          0.1820     0.2540     0.0420 hn         1 P7A       0.330500
     36 H14          0.1470    -3.5610    -0.1750 ha         1 P7A       0.169000
     37 H17         -3.8630    -4.8200     1.8190 hc         1 P7A       0.040033
     38 H17A        -3.1990    -6.4540     1.6630 hc         1 P7A       0.040033
     39 H17B        -2.2250    -5.1690     2.4040 hc         1 P7A       0.040033
     40 H18         -3.0430    -5.0170    -1.8650 hc         1 P7A       0.040033
     41 H18A        -3.6930    -6.3620    -0.9050 hc         1 P7A       0.040033
     42 H18B        -4.3440    -4.7290    -0.6940 hc         1 P7A       0.040033
     43 H19         -0.3610    -5.7820     0.7160 hc         1 P7A       0.040033
     44 H19A        -1.4170    -6.9900    -0.0360 hc         1 P7A       0.040033
     45 H19B        -0.6930    -5.7140    -1.0290 hc         1 P7A       0.040033
     46 H20         -4.3120     1.0290     0.6100 h1         1 P7A       0.064450
     47 H20A        -3.6730     0.0730     1.9590 h1         1 P7A       0.064450
     48 H21         -2.0480     1.9180     2.5180 h1         1 P7A       0.108200
     49 H21A        -3.7470     2.4900     2.5900 h1         1 P7A       0.108200
     50 H23         -1.1920     3.2300    -1.1340 h1         1 P7A       0.108200
     51 H23A        -0.5120     2.3660     0.2850 h1         1 P7A       0.108200
     52 H24         -1.3480     0.7590    -1.5270 h1         1 P7A       0.064450
     53 H24A        -2.9640     1.4460    -1.3620 h1         1 P7A       0.064450
     54 H31          2.7080     2.4180     0.6560 ha         1 P7A       0.106000
     55 H32          3.8380     4.5040     1.3010 ha         1 P7A       0.113000
     56 H33          6.2470     4.8510     0.7810 ha         1 P7A       0.115000
     57 H34          7.5310     3.0840    -0.4010 ha         1 P7A       0.115000
     58 O2          -1.8340     4.4740     1.4840 o          1 P7A      -0.516500
@<TRIPOS>BOND
     1     1     3 2   
     2     1     6 1   
     3     1    15 1   
     4     2     5 1   
     5     2    23 1   
     6     2    26 1   
     7     4     5 1   
     8     4    17 1   
     9     5    16 2   
    10     6     8 1   
    11     6    31 1   
    12     7     9 2   
    13     7    24 1   
    14     7    25 1   
    15     7    58 2   
    16     8    10 ar  
    17     8    14 ar  
    18    10    11 ar  
    19    10    27 ar  
    20    11    12 ar  
    21    11    30 ar  
    22    12    13 ar  
    23    12    32 1   
    24    13    14 ar  
    25    13    33 1   
    26    14    34 1   
    27    15    16 1   
    28    15    35 1   
    29    16    18 1   
    30    17    18 2   
    31    17    19 1   
    32    18    36 1   
    33    19    20 1   
    34    19    21 1   
    35    19    22 1   
    36    20    37 1   
    37    20    38 1   
    38    20    39 1   
    39    21    40 1   
    40    21    41 1   
    41    21    42 1   
    42    22    43 1   
    43    22    44 1   
    44    22    45 1   
    45    23    24 1   
    46    23    46 1   
    47    23    47 1   
    48    24    48 1   
    49    24    49 1   
    50    25    26 1   
    51    25    50 1   
    52    25    51 1   
    53    26    52 1   
    54    26    53 1   
    55    27    28 ar  
    56    27    54 1   
    57    28    29 ar  
    58    28    55 1   
    59    29    30 ar  
    60    29    56 1   
    61    30    57 1   
@<TRIPOS>SUBSTRUCTURE
     1 P7A         1 TEMP              0 ****  ****    0 ROOT
