@<TRIPOS>MOLECULE
P7A
   58    61     1     0     0
SMALL
abcg2


@<TRIPOS>ATOM
      1 C1           1.6950    -0.6060    -0.5380 c          1 P7A       0.667100
      2 N1          -2.3090     0.5470    -0.0260 nh         1 P7A      -0.769400
      3 O1           2.1670    -1.7280    -0.5650 o          1 P7A      -0.604100
      4 S1          -3.0370    -2.1180     0.2600 ss         1 P7A       0.140000
      5 C2          -1.9330    -0.7960     0.0120 cc         1 P7A       0.019000
      6 N2           2.4530     0.5280    -0.6550 ns         1 P7A      -0.185000
      7 S2          -3.6800     3.3160    -0.0490 s6         1 P7A       1.084000
      8 C3           3.8520     0.5060    -0.7980 ca         1 P7A      -0.023000
      9 O3          -5.0800     2.9220     0.1230 o          1 P7A      -0.516500
     10 C4           4.6560     1.1980     0.1520 ca         1 P7A      -0.046000
     11 C5           6.0650     1.2100    -0.0300 ca         1 P7A      -0.028000
     12 C6           6.6350     0.5100    -1.1190 ca         1 P7A      -0.104000
     13 C7           5.8360    -0.1650    -1.9980 ca         1 P7A      -0.095000
     14 C8           4.4370    -0.1560    -1.8460 ca         1 P7A      -0.097000
     15 N9           0.3640    -0.3410    -0.3960 ns         1 P7A      -0.402100
     16 C10         -0.6580    -1.2530    -0.1780 cd         1 P7A       0.100600
     17 C13         -1.7700    -3.2790     0.1150 cc         1 P7A      -0.146300
     18 C14         -0.5700    -2.6770    -0.1200 cd         1 P7A      -0.143000
     19 C16         -2.0400    -4.7480     0.3420 c3         1 P7A       0.020300
     20 C17         -1.9680    -5.0290     1.8500 c3         1 P7A      -0.085767
     21 C18         -3.4270    -5.1380    -0.1770 c3         1 P7A      -0.085767
     22 C19         -0.9900    -5.5900    -0.3850 c3         1 P7A      -0.085767
     23 C20         -2.8300     1.0720     1.2290 c6         1 P7A       0.201300
     24 C21         -2.7290     2.5890     1.2760 c6         1 P7A      -0.304900
     25 C23         -3.0160     2.4260    -1.4480 c6         1 P7A      -0.304900
     26 C24         -3.0840     0.9260    -1.2020 c6         1 P7A       0.201300
     27 C31          4.1100     1.8670     1.2740 ca         1 P7A      -0.103000
     28 C32          4.9200     2.5320     2.1540 ca         1 P7A      -0.104000
     29 C33          6.3160     2.5620     1.9620 ca         1 P7A      -0.106000
     30 C34          6.8730     1.9120     0.8950 ca         1 P7A      -0.095000
     31 HN2          2.0190     1.4260    -0.5100 hn         1 P7A       0.152000
     32 H6           7.7100     0.5180    -1.2460 ha         1 P7A       0.116000
     33 H7           6.2720    -0.6980    -2.8330 ha         1 P7A       0.118000
     34 H8           3.8200    -0.6630    -2.5760 ha         1 P7A       0.129000
     35 HN9          0.0500     0.6210    -0.3810 hn         1 P7A       0.330500
     36 H14          0.3470    -3.2270    -0.2400 ha         1 P7A       0.169000
     37 H17         -2.7040    -4.4380     2.3980 hc         1 P7A       0.040033
     38 H17A        -2.1680    -6.0830     2.0520 hc         1 P7A       0.040033
     39 H17B        -0.9800    -4.7900     2.2460 hc         1 P7A       0.040033
     40 H18         -3.5280    -4.9300    -1.2440 hc         1 P7A       0.040033
     41 H18A        -3.5920    -6.2060    -0.0260 hc         1 P7A       0.040033
     42 H18B        -4.2270    -4.6110     0.3480 hc         1 P7A       0.040033
     43 H19          0.0210    -5.3820    -0.0330 hc         1 P7A       0.040033
     44 H19A        -1.1810    -6.6500    -0.2120 hc         1 P7A       0.040033
     45 H19B        -1.0170    -5.4150    -1.4610 hc         1 P7A       0.040033
     46 H20         -3.8680     0.7640     1.4090 h1         1 P7A       0.064450
     47 H20A        -2.2300     0.6730     2.0470 h1         1 P7A       0.064450
     48 H21         -1.6970     2.9230     1.1610 h1         1 P7A       0.108200
     49 H21A        -3.1320     2.9860     2.2090 h1         1 P7A       0.108200
     50 H23         -3.6110     2.7150    -2.3160 h1         1 P7A       0.108200
     51 H23A        -1.9880     2.7610    -1.5910 h1         1 P7A       0.108200
     52 H24         -2.6560     0.4290    -2.0720 h1         1 P7A       0.064450
     53 H24A        -4.1310     0.6060    -1.1290 h1         1 P7A       0.064450
     54 H31          3.0430     1.8460     1.4510 ha         1 P7A       0.106000
     55 H32          4.4860     3.0330     3.0100 ha         1 P7A       0.113000
     56 H33          6.9430     3.0950     2.6640 ha         1 P7A       0.115000
     57 H34          7.9460     1.9240     0.7460 ha         1 P7A       0.115000
     58 O2          -3.3700     4.7390    -0.1680 o          1 P7A      -0.516500
@<TRIPOS>BOND
     1     1     3 2   
     2     1     6 1   
     3     1    15 1   
     4     2     5 1   
     5     2    23 1   
     6     2    26 1   
     7     4     5 1   
     8     4    17 1   
     9     5    16 2   
    10     6     8 1   
    11     6    31 1   
    12     7     9 2   
    13     7    24 1   
    14     7    25 1   
    15     7    58 2   
    16     8    10 ar  
    17     8    14 ar  
    18    10    11 ar  
    19    10    27 ar  
    20    11    12 ar  
    21    11    30 ar  
    22    12    13 ar  
    23    12    32 1   
    24    13    14 ar  
    25    13    33 1   
    26    14    34 1   
    27    15    16 1   
    28    15    35 1   
    29    16    18 1   
    30    17    18 2   
    31    17    19 1   
    32    18    36 1   
    33    19    20 1   
    34    19    21 1   
    35    19    22 1   
    36    20    37 1   
    37    20    38 1   
    38    20    39 1   
    39    21    40 1   
    40    21    41 1   
    41    21    42 1   
    42    22    43 1   
    43    22    44 1   
    44    22    45 1   
    45    23    24 1   
    46    23    46 1   
    47    23    47 1   
    48    24    48 1   
    49    24    49 1   
    50    25    26 1   
    51    25    50 1   
    52    25    51 1   
    53    26    52 1   
    54    26    53 1   
    55    27    28 ar  
    56    27    54 1   
    57    28    29 ar  
    58    28    55 1   
    59    29    30 ar  
    60    29    56 1   
    61    30    57 1   
@<TRIPOS>SUBSTRUCTURE
     1 P7A         1 TEMP              0 ****  ****    0 ROOT
