@<TRIPOS>MOLECULE
P7B
   61    64     1     0     0
SMALL
abcg2


@<TRIPOS>ATOM
      1 C1           2.0460    -2.4160    -0.3490 cc         1 P7B      -0.236300
      2 S2           0.3380    -2.3540    -0.0120 ss         1 P7B       0.297000
      3 C3           0.3730    -0.6370     0.1520 cc         1 P7B       0.010600
      4 C4           1.6470    -0.1390     0.0110 cd         1 P7B      -0.273600
      5 C5           2.5840    -1.1750    -0.2980 cd         1 P7B      -0.090000
      6 C6           2.7010    -3.7360    -0.6690 c3         1 P7B       0.029300
      7 C7           4.2000    -3.5310    -0.8860 c3         1 P7B      -0.084100
      8 C8           2.4980    -4.7210     0.4890 c3         1 P7B      -0.084100
      9 C9           2.0880    -4.3200    -1.9500 c3         1 P7B      -0.084100
     10 C10          1.9340     1.3100     0.0590 c          1 P7B       0.658700
     11 O11          1.0950     2.1110    -0.3570 o          1 P7B      -0.640100
     12 N12         -0.7560     0.1110     0.3780 ns         1 P7B      -0.395100
     13 C13         -2.0030    -0.4160     0.5780 c          1 P7B       0.658100
     14 O14         -2.1970    -1.6190     0.6240 o          1 P7B      -0.607100
     15 N15         -2.9770     0.5230     0.7170 ns         1 P7B      -0.170000
     16 C16         -4.3410     0.2030     0.8580 ca         1 P7B      -0.027000
     17 C17         -4.7760    -0.5540     1.9130 ca         1 P7B      -0.094000
     18 C18         -6.1440    -0.8560     2.0620 ca         1 P7B      -0.097000
     19 C19         -7.0610    -0.3740     1.1700 ca         1 P7B      -0.101000
     20 C20         -6.6460     0.4150     0.0730 ca         1 P7B      -0.029000
     21 C21         -5.2660     0.6970    -0.1050 ca         1 P7B      -0.045000
     22 C22         -7.5780     0.9180    -0.8660 ca         1 P7B      -0.096000
     23 C23         -7.1630     1.6560    -1.9400 ca         1 P7B      -0.106000
     24 C24         -5.7910     1.9180    -2.1270 ca         1 P7B      -0.102000
     25 C25         -4.8650     1.4510    -1.2340 ca         1 P7B      -0.103000
     26 N26          3.1340     1.7170     0.5420 n          1 P7B      -0.407800
     27 C27          3.9530     0.9480     1.4590 c3         1 P7B       0.083000
     28 C28          5.3650     0.6870     0.9520 c3         1 P7B       0.097000
     29 N29          6.2540     1.8250     1.0520 ns         1 P7B      -0.514900
     30 C30          6.1300     3.0030     0.4130 c          1 P7B       0.565000
     31 C31          4.8810     3.2000    -0.4190 c3         1 P7B      -0.180400
     32 C32          3.5580     3.0900     0.3470 c3         1 P7B       0.097000
     33 O33          6.9800     3.8790     0.5080 o          1 P7B      -0.564000
     34 H5           3.6230    -0.9790    -0.5160 ha         1 P7B       0.129000
     35 H7           4.6890    -3.1390     0.0080 hc         1 P7B       0.037700
     36 H7A          4.6700    -4.4860    -1.1260 hc         1 P7B       0.037700
     37 H7B          4.4020    -2.8490    -1.7130 hc         1 P7B       0.037700
     38 H8           1.4420    -4.9150     0.6840 hc         1 P7B       0.037700
     39 H8A          2.9690    -5.6780     0.2520 hc         1 P7B       0.037700
     40 H8B          2.9450    -4.3430     1.4110 hc         1 P7B       0.037700
     41 H9           2.2060    -3.6320    -2.7880 hc         1 P7B       0.037700
     42 H9A          2.5820    -5.2590    -2.2090 hc         1 P7B       0.037700
     43 H9B          1.0230    -4.5290    -1.8350 hc         1 P7B       0.037700
     44 HN12        -0.6280     1.1090     0.2670 hn         1 P7B       0.355500
     45 HN15        -2.7380     1.4940     0.5860 hn         1 P7B       0.162000
     46 H17         -4.0700    -0.9110     2.6500 ha         1 P7B       0.129000
     47 H18         -6.4620    -1.4570     2.9020 ha         1 P7B       0.118000
     48 H19         -8.1150    -0.5920     1.2940 ha         1 P7B       0.116000
     49 H22         -8.6300     0.7030    -0.7210 ha         1 P7B       0.115000
     50 H23         -7.8840     2.0340    -2.6530 ha         1 P7B       0.115000
     51 H24         -5.4680     2.4880    -2.9880 ha         1 P7B       0.115000
     52 H25         -3.8160     1.6510    -1.4060 ha         1 P7B       0.111000
     53 H27          4.0160     1.4930     2.4070 h1         1 P7B       0.063200
     54 H27A         3.4680     0.0020     1.6830 h1         1 P7B       0.063200
     55 H28          5.8020    -0.0990     1.5650 h1         1 P7B       0.051700
     56 H28A         5.3340     0.3050    -0.0730 h1         1 P7B       0.051700
     57 HN29         7.0900     1.7060     1.6040 hn         1 P7B       0.316500
     58 H31          4.9450     4.1980    -0.8520 hc         1 P7B       0.076700
     59 H31A         4.8720     2.4930    -1.2550 hc         1 P7B       0.076700
     60 H32          2.7920     3.6120    -0.2170 h1         1 P7B       0.066700
     61 H32A         3.6380     3.5940     1.3160 h1         1 P7B       0.066700
@<TRIPOS>BOND
     1     1     2 1   
     2     1     5 2   
     3     1     6 1   
     4     2     3 1   
     5     3     4 2   
     6     3    12 1   
     7     4     5 1   
     8     4    10 1   
     9     5    34 1   
    10     6     7 1   
    11     6     8 1   
    12     6     9 1   
    13     7    35 1   
    14     7    36 1   
    15     7    37 1   
    16     8    38 1   
    17     8    39 1   
    18     8    40 1   
    19     9    41 1   
    20     9    42 1   
    21     9    43 1   
    22    10    11 2   
    23    10    26 1   
    24    12    13 1   
    25    12    44 1   
    26    13    14 2   
    27    13    15 1   
    28    15    16 1   
    29    15    45 1   
    30    16    17 ar  
    31    16    21 ar  
    32    17    18 ar  
    33    17    46 1   
    34    18    19 ar  
    35    18    47 1   
    36    19    20 ar  
    37    19    48 1   
    38    20    21 ar  
    39    20    22 ar  
    40    21    25 ar  
    41    22    23 ar  
    42    22    49 1   
    43    23    24 ar  
    44    23    50 1   
    45    24    25 ar  
    46    24    51 1   
    47    25    52 1   
    48    26    27 1   
    49    26    32 1   
    50    27    28 1   
    51    27    53 1   
    52    27    54 1   
    53    28    29 1   
    54    28    55 1   
    55    28    56 1   
    56    29    30 1   
    57    29    57 1   
    58    30    31 1   
    59    30    33 2   
    60    31    32 1   
    61    31    58 1   
    62    31    59 1   
    63    32    60 1   
    64    32    61 1   
@<TRIPOS>SUBSTRUCTURE
     1 P7B         1 TEMP              0 ****  ****    0 ROOT
