@<TRIPOS>MOLECULE
P7B
   61    64     1     0     0
SMALL
No Charge or Current Charge


@<TRIPOS>ATOM
      1 C1           2.3050    -2.8390    -0.2290 cc         1 P7B      -0.236300
      2 S2           0.5620    -3.0110    -0.0150 ss         1 P7B       0.297000
      3 C3           0.3390    -1.2560    -0.0390 cc         1 P7B       0.010600
      4 C4           1.5450    -0.5890    -0.1510 cd         1 P7B      -0.273600
      5 C5           2.6400    -1.5060    -0.2850 cd         1 P7B      -0.090000
      6 C6           3.2090    -4.0590    -0.3330 c3         1 P7B       0.029300
      7 C7           4.6960    -3.6480    -0.5030 c3         1 P7B      -0.084100
      8 C8           3.0810    -4.9100     0.9560 c3         1 P7B      -0.084100
      9 C9           2.7900    -4.9100    -1.5590 c3         1 P7B      -0.084100
     10 C10          1.6440     0.9130    -0.1960 c          1 P7B       0.658700
     11 O11          0.6660     1.6380    -0.3480 o          1 P7B      -0.640100
     12 N12         -0.8730    -0.5780     0.0570 ns         1 P7B      -0.395100
     13 C13         -2.1470    -1.0830     0.2020 c          1 P7B       0.658100
     14 O14         -2.3910    -2.2790     0.2770 o          1 P7B      -0.607100
     15 N15         -3.1040    -0.0800     0.2360 ns         1 P7B      -0.170000
     16 C16         -4.5170    -0.1180     0.4210 ca         1 P7B      -0.027000
     17 C17         -5.1550    -1.2420     0.9960 ca         1 P7B      -0.094000
     18 C18         -6.5450    -1.2590     1.1870 ca         1 P7B      -0.097000
     19 C19         -7.3210    -0.1540     0.8130 ca         1 P7B      -0.101000
     20 C20         -6.7080     0.9780     0.2490 ca         1 P7B      -0.029000
     21 C21         -5.3040     1.0060     0.0520 ca         1 P7B      -0.045000
     22 C22         -7.5010     2.0830    -0.1160 ca         1 P7B      -0.096000
     23 C23         -6.9080     3.2230    -0.6800 ca         1 P7B      -0.106000
     24 C24         -5.5210     3.2610    -0.8830 ca         1 P7B      -0.102000
     25 C25         -4.7220     2.1630    -0.5220 ca         1 P7B      -0.103000
     26 N26          2.9420     1.4650    -0.0860 n          1 P7B      -0.407800
     27 C27          3.7730     1.0610     1.0940 c3         1 P7B       0.083000
     28 C28          5.3080     1.0150     0.8760 c3         1 P7B       0.097000
     29 N29          5.9400     2.3390     0.9190 ns         1 P7B      -0.514900
     30 C30          5.3980     3.4490     0.3260 c          1 P7B       0.565000
     31 C31          4.5890     3.2100    -0.9420 c3         1 P7B      -0.180400
     32 C32          3.1340     2.8490    -0.6010 c3         1 P7B       0.097000
     33 O33          5.5940     4.5610     0.7850 o          1 P7B      -0.564000
     34 H5           3.6600    -1.1730    -0.4440 ha         1 P7B       0.129000
     35 H7           5.0380    -3.0480     0.3490 hc         1 P7B       0.037700
     36 H7A          5.3420    -4.5310    -0.5710 hc         1 P7B       0.037700
     37 H7B          4.8390    -3.0590    -1.4180 hc         1 P7B       0.037700
     38 H8           2.0590    -5.2850     1.0880 hc         1 P7B       0.037700
     39 H8A          3.7510    -5.7770     0.9220 hc         1 P7B       0.037700
     40 H8B          3.3400    -4.3150     1.8400 hc         1 P7B       0.037700
     41 H9           2.8430    -4.3150    -2.4800 hc         1 P7B       0.037700
     42 H9A          3.4500    -5.7780    -1.6780 hc         1 P7B       0.037700
     43 H9B          1.7640    -5.2830    -1.4560 hc         1 P7B       0.037700
     44 HN12        -0.8180     0.4350    -0.0010 hn         1 P7B       0.355500
     45 HN15        -2.7360     0.8530     0.1220 hn         1 P7B       0.162000
     46 H17         -4.5850    -2.1080     1.3190 ha         1 P7B       0.129000
     47 H18         -7.0210    -2.1310     1.6310 ha         1 P7B       0.118000
     48 H19         -8.3970    -0.1780     0.9660 ha         1 P7B       0.116000
     49 H22         -8.5770     2.0590     0.0380 ha         1 P7B       0.115000
     50 H23         -7.5240     4.0740    -0.9610 ha         1 P7B       0.115000
     51 H24         -5.0620     4.1440    -1.3230 ha         1 P7B       0.115000
     52 H25         -3.6530     2.2290    -0.7000 ha         1 P7B       0.111000
     53 H27          3.5640     1.7610     1.9130 h1         1 P7B       0.063200
     54 H27A         3.4540     0.0810     1.4660 h1         1 P7B       0.063200
     55 H28          5.7540     0.4080     1.6750 h1         1 P7B       0.051700
     56 H28A         5.5370     0.5260    -0.0800 h1         1 P7B       0.051700
     57 HN29         6.5600     2.5300     1.6970 hn         1 P7B       0.316500
     58 H31          4.5960     4.1220    -1.5490 hc         1 P7B       0.076700
     59 H31A         5.0030     2.3690    -1.5100 hc         1 P7B       0.076700
     60 H32          2.5410     2.9570    -1.5200 h1         1 P7B       0.066700
     61 H32A         2.7350     3.5670     0.1290 h1         1 P7B       0.066700
@<TRIPOS>BOND
     1     1     2 1   
     2     1     5 2   
     3     1     6 1   
     4     2     3 1   
     5     3     4 2   
     6     3    12 1   
     7     4     5 1   
     8     4    10 1   
     9     5    34 1   
    10     6     7 1   
    11     6     8 1   
    12     6     9 1   
    13     7    35 1   
    14     7    36 1   
    15     7    37 1   
    16     8    38 1   
    17     8    39 1   
    18     8    40 1   
    19     9    41 1   
    20     9    42 1   
    21     9    43 1   
    22    10    11 2   
    23    10    26 1   
    24    12    13 1   
    25    12    44 1   
    26    13    14 2   
    27    13    15 1   
    28    15    16 1   
    29    15    45 1   
    30    16    17 ar  
    31    16    21 ar  
    32    17    18 ar  
    33    17    46 1   
    34    18    19 ar  
    35    18    47 1   
    36    19    20 ar  
    37    19    48 1   
    38    20    21 ar  
    39    20    22 ar  
    40    21    25 ar  
    41    22    23 ar  
    42    22    49 1   
    43    23    24 ar  
    44    23    50 1   
    45    24    25 ar  
    46    24    51 1   
    47    25    52 1   
    48    26    27 1   
    49    26    32 1   
    50    27    28 1   
    51    27    53 1   
    52    27    54 1   
    53    28    29 1   
    54    28    55 1   
    55    28    56 1   
    56    29    30 1   
    57    29    57 1   
    58    30    31 1   
    59    30    33 2   
    60    31    32 1   
    61    31    58 1   
    62    31    59 1   
    63    32    60 1   
    64    32    61 1   
@<TRIPOS>SUBSTRUCTURE
     1 P7B         1 TEMP              0 ****  ****    0 ROOT
