@<TRIPOS>MOLECULE
P7C
   69    71     1     0     0
SMALL
bcc


@<TRIPOS>ATOM
      1 CL1         -5.2140    -2.3400     1.8820 cl         1 P7C      -0.079400
      2 N2           8.6380    -3.0250     0.0370 n3         1 P7C      -0.715600
      3 S2          -1.2100     2.9450     0.0910 ss         1 P7C       0.002200
      4 CL2         -8.3070    -2.5240     1.5070 cl         1 P7C      -0.077400
      5 C3          -0.8050     1.2680     0.1170 cc         1 P7C       0.148500
      6 C4           0.5520     1.0730     0.2140 cd         1 P7C      -0.264600
      7 C5           1.2530     2.3160     0.3300 cd         1 P7C      -0.108000
      8 C10          1.1440    -0.2810     0.2770 c          1 P7C       0.722700
      9 C11          0.4570     3.4090     0.2820 cc         1 P7C      -0.086400
     10 O11          0.5310    -1.1880     0.8410 o          1 P7C      -0.642100
     11 N12         -1.7520     0.2740     0.0680 ns         1 P7C      -0.458100
     12 C13         -3.0830     0.4900    -0.1450 c          1 P7C       0.796100
     13 C14          0.8260     4.8700     0.3510 c3         1 P7C       0.028300
     14 O14         -3.5380     1.6000    -0.3520 o          1 P7C      -0.604100
     15 N15         -3.8290    -0.6540    -0.1020 ns         1 P7C      -0.486100
     16 C16         -5.2150    -0.6850    -0.2540 ca         1 P7C       0.089600
     17 C17         -5.8560     0.0170    -1.2720 ca         1 P7C      -0.120000
     18 C19         -7.9940    -0.8310    -0.5550 ca         1 P7C      -0.129000
     19 C20         -7.3640    -1.5470     0.4480 ca         1 P7C       0.045400
     20 C22          0.1090     5.5350     1.5340 c3         1 P7C      -0.084433
     21 C23         -7.2310    -0.0490    -1.4080 ca         1 P7C      -0.099000
     22 C24         -5.9840    -1.4700     0.6120 ca         1 P7C      -0.018600
     23 C25          3.0700    -1.7220    -0.0440 c3         1 P7C       0.072000
     24 C26          5.4750     0.0790    -1.1730 c          1 P7C       0.705500
     25 N26          2.3600    -0.4800    -0.2820 n          1 P7C      -0.471800
     26 C28          4.4920    -1.4920     0.4520 c3         1 P7C       0.087000
     27 N29          5.4600    -1.1320    -0.5740 n          1 P7C      -0.480800
     28 C33          4.2880     0.9850    -0.9140 c3         1 P7C      -0.179400
     29 C34          2.9420     0.3680    -1.3040 c3         1 P7C       0.108000
     30 C35          6.5290    -2.0800    -0.8410 c3         1 P7C       0.097000
     31 C36          7.6510    -1.9750     0.1870 c3         1 P7C       0.141800
     32 C37          9.4310    -2.8710    -1.1650 c3         1 P7C       0.149600
     33 C38          9.4930    -3.1090     1.2020 c3         1 P7C       0.149600
     34 H5           2.3210     2.3790     0.4780 ha         1 P7C       0.151000
     35 H7           2.6070     6.0660     0.5980 hc         1 P7C       0.038144
     36 H7A          2.6720     4.5320     1.4630 hc         1 P7C       0.038144
     37 H7B          2.8890     4.5740    -0.2930 hc         1 P7C       0.038144
     38 H8           0.9140     5.1120    -1.8130 hc         1 P7C       0.038144
     39 H8A         -0.6580     5.5220    -1.1220 hc         1 P7C       0.038144
     40 H8B          0.7010     6.6230    -0.9200 hc         1 P7C       0.038144
     41 HN12        -1.4040    -0.6500     0.2930 hn         1 P7C       0.359500
     42 HN15        -3.3850    -1.5000     0.2250 hn         1 P7C       0.336500
     43 H17         -5.2740     0.6000    -1.9690 ha         1 P7C       0.160000
     44 H19         -9.0670    -0.8930    -0.6720 ha         1 P7C       0.153000
     45 H22          0.3710     6.5930     1.5900 hc         1 P7C       0.038144
     46 H22A        -0.9770     5.4720     1.4400 hc         1 P7C       0.038144
     47 H22B         0.3910     5.0650     2.4770 hc         1 P7C       0.038144
     48 H23         -7.7160     0.5000    -2.2030 ha         1 P7C       0.144000
     49 H25          2.5340    -2.2910     0.7110 h1         1 P7C       0.068200
     50 H25A         3.0880    -2.3270    -0.9570 h1         1 P7C       0.068200
     51 H28          4.4880    -0.7610     1.2650 h1         1 P7C       0.056700
     52 H28A         4.8340    -2.4290     0.8900 h1         1 P7C       0.056700
     53 H33          4.2680     1.3010     0.1340 hc         1 P7C       0.076200
     54 H33A         4.4450     1.8830    -1.5100 hc         1 P7C       0.076200
     55 H34          3.0610    -0.2310    -2.2130 h1         1 P7C       0.062200
     56 H34A         2.2440     1.1590    -1.5610 h1         1 P7C       0.062200
     57 H35          6.1090    -3.0870    -0.8180 h1         1 P7C       0.065200
     58 H35A         6.8980    -1.9090    -1.8500 h1         1 P7C       0.065200
     59 H36          7.2140    -2.0670     1.1860 h1         1 P7C       0.037200
     60 H36A         8.1000    -0.9680     0.1350 h1         1 P7C       0.037200
     61 H37         10.0040    -1.9300    -1.1840 h1         1 P7C       0.032033
     62 H37A        10.1430    -3.6950    -1.2450 h1         1 P7C       0.032033
     63 H37B         8.8060    -2.8980    -2.0570 h1         1 P7C       0.032033
     64 H38          8.8940    -3.2710     2.0990 h1         1 P7C       0.032033
     65 H38A        10.1790    -3.9510     1.1010 h1         1 P7C       0.032033
     66 H38B        10.1000    -2.2040     1.3640 h1         1 P7C       0.032033
     67 O33          6.3750     0.4270    -1.9260 o          1 P7C      -0.637500
     68 C7           2.3360     5.0100     0.5410 c3         1 P7C      -0.084433
     69 C8           0.4200     5.5690    -0.9530 c3         1 P7C      -0.084433
@<TRIPOS>BOND
     1     1    22 1   
     2     2    31 1   
     3     2    32 1   
     4     2    33 1   
     5     3     5 1   
     6     3     9 1   
     7     4    19 1   
     8     5     6 2   
     9     5    11 1   
    10     6     7 1   
    11     6     8 1   
    12     7     9 2   
    13     7    34 1   
    14     8    10 2   
    15     8    25 1   
    16     9    13 1   
    17    11    12 1   
    18    11    41 1   
    19    12    14 2   
    20    12    15 1   
    21    13    20 1   
    22    13    68 1   
    23    13    69 1   
    24    15    16 1   
    25    15    42 1   
    26    16    17 ar  
    27    16    22 ar  
    28    17    21 ar  
    29    17    43 1   
    30    18    19 ar  
    31    18    21 ar  
    32    18    44 1   
    33    19    22 ar  
    34    20    45 1   
    35    20    46 1   
    36    20    47 1   
    37    21    48 1   
    38    23    25 1   
    39    23    26 1   
    40    23    49 1   
    41    23    50 1   
    42    24    27 1   
    43    24    28 1   
    44    24    67 2   
    45    25    29 1   
    46    26    27 1   
    47    26    51 1   
    48    26    52 1   
    49    27    30 1   
    50    28    29 1   
    51    28    53 1   
    52    28    54 1   
    53    29    55 1   
    54    29    56 1   
    55    30    31 1   
    56    30    57 1   
    57    30    58 1   
    58    31    59 1   
    59    31    60 1   
    60    32    61 1   
    61    32    62 1   
    62    32    63 1   
    63    33    64 1   
    64    33    65 1   
    65    33    66 1   
    66    35    68 1   
    67    36    68 1   
    68    37    68 1   
    69    38    69 1   
    70    39    69 1   
    71    40    69 1   
@<TRIPOS>SUBSTRUCTURE
     1 P7C         1 TEMP              0 ****  ****    0 ROOT
