@<TRIPOS>MOLECULE
P7C
   69    71     1     0     0
SMALL
No Charge or Current Charge


@<TRIPOS>ATOM
      1 Cl1         -3.9940    -3.4480    -0.2990 cl         1 P7C      -0.171000
      2 N2           8.3640    -3.5910     0.1170 n3         1 P7C      -0.715600
      3 S2          -1.2830     3.5070    -0.0260 ss         1 P7C       0.292000
      4 Cl2         -6.9930    -4.5490    -0.5570 cl         1 P7C      -0.169000
      5 C3          -0.9110     1.7780     0.0200 cc         1 P7C       0.003600
      6 C4           0.4490     1.5510     0.1270 cd         1 P7C      -0.264600
      7 C5           1.1780     2.7810     0.2400 cd         1 P7C      -0.090000
      8 C10          1.0410     0.1680     0.1880 c          1 P7C       0.655700
      9 C11          0.4180     3.9260     0.1720 cc         1 P7C      -0.231300
     10 O11          0.3600    -0.8380     0.3610 o          1 P7C      -0.642100
     11 N12         -1.8300     0.7340    -0.0550 ns         1 P7C      -0.391100
     12 C13         -3.2010     0.7850    -0.1940 c          1 P7C       0.662100
     13 C14          0.8660     5.3790     0.2540 c3         1 P7C       0.028300
     14 O14         -3.8250     1.8320    -0.2880 o          1 P7C      -0.604100
     15 N15         -3.7690    -0.4790    -0.2160 ns         1 P7C      -0.160000
     16 C16         -5.1180    -0.9260    -0.3330 ca         1 P7C      -0.003000
     17 C17         -6.2210    -0.0430    -0.3970 ca         1 P7C      -0.102000
     18 C19         -7.7570    -1.9250    -0.5590 ca         1 P7C      -0.111000
     19 C20         -6.6740    -2.8150    -0.4940 ca         1 P7C       0.137000
     20 C22          0.1960     6.0590     1.4750 c3         1 P7C      -0.084433
     21 C23         -7.5310    -0.5410    -0.5090 ca         1 P7C      -0.081000
     22 C24         -5.3570    -2.3200    -0.3810 ca         1 P7C       0.073000
     23 C25          3.0900    -1.1560     0.6210 c3         1 P7C       0.072000
     24 C26          5.5150     0.0270    -1.1590 c          1 P7C       0.563000
     25 N26          2.4480     0.0770     0.0710 n          1 P7C      -0.404800
     26 C28          4.6020    -1.0580     0.9160 c3         1 P7C       0.087000
     27 N29          5.4370    -1.0900    -0.3030 n          1 P7C      -0.413800
     28 C33          4.5430     1.1820    -0.9160 c3         1 P7C      -0.179400
     29 C34          3.0900     0.7070    -1.1240 c3         1 P7C       0.108000
     30 C35          6.2450    -2.3090    -0.5560 c3         1 P7C       0.097000
     31 C36          7.5780    -2.3330     0.2340 c3         1 P7C       0.141800
     32 C37          8.7990    -3.8960    -1.2680 c3         1 P7C       0.149600
     33 C38          9.4960    -3.6300     1.0700 c3         1 P7C       0.149600
     34 H5           2.2510     2.8070     0.3930 ha         1 P7C       0.133000
     35 H7           2.7240     6.5360     0.4660 hc         1 P7C       0.038144
     36 H7A          2.7420     4.9920     1.3350 hc         1 P7C       0.038144
     37 H7B          2.9240     5.0230    -0.4340 hc         1 P7C       0.038144
     38 H8           0.8940     5.6330    -1.9230 hc         1 P7C       0.038144
     39 H8A         -0.6330     6.1340    -1.1700 hc         1 P7C       0.038144
     40 H8B          0.8010     7.1620    -1.0260 hc         1 P7C       0.038144
     41 HN12        -1.4410    -0.2020     0.0170 hn         1 P7C       0.359500
     42 HN15        -3.1040    -1.2350    -0.1350 hn         1 P7C       0.170000
     43 H17         -6.0900     1.0340    -0.3580 ha         1 P7C       0.142000
     44 H19         -8.7700    -2.3090    -0.6460 ha         1 P7C       0.135000
     45 H22          0.5300     7.0990     1.5770 hc         1 P7C       0.038144
     46 H22A        -0.8960     6.0690     1.3760 hc         1 P7C       0.038144
     47 H22B         0.4480     5.5290     2.4010 hc         1 P7C       0.038144
     48 H23         -8.3720     0.1480    -0.5580 ha         1 P7C       0.126000
     49 H25          2.5900    -1.4060     1.5660 h1         1 P7C       0.068200
     50 H25A         2.9130    -1.9900    -0.0710 h1         1 P7C       0.068200
     51 H28          4.8160    -0.1550     1.5030 h1         1 P7C       0.056700
     52 H28A         4.8760    -1.9120     1.5480 h1         1 P7C       0.056700
     53 H33          4.6160     1.5400     0.1150 hc         1 P7C       0.076200
     54 H33A         4.7670     1.9970    -1.6130 hc         1 P7C       0.076200
     55 H34          3.0700    -0.0210    -1.9470 h1         1 P7C       0.062200
     56 H34A         2.4950     1.5560    -1.4760 h1         1 P7C       0.062200
     57 H35          5.6530    -3.1880    -0.2690 h1         1 P7C       0.065200
     58 H35A         6.4500    -2.3990    -1.6290 h1         1 P7C       0.065200
     59 H36          7.3340    -2.1610     1.2910 h1         1 P7C       0.037200
     60 H36A         8.1880    -1.4800    -0.0930 h1         1 P7C       0.037200
     61 H37          9.4380    -3.0950    -1.6630 h1         1 P7C       0.032033
     62 H37A         9.3690    -4.8350    -1.2960 h1         1 P7C       0.032033
     63 H37B         7.9380    -4.0150    -1.9380 h1         1 P7C       0.032033
     64 H38          9.1420    -3.4870     2.1000 h1         1 P7C       0.032033
     65 H38A        10.0110    -4.5990     1.0230 h1         1 P7C       0.032033
     66 H38B        10.2260    -2.8410     0.8450 h1         1 P7C       0.032033
     67 O33          6.2330     0.0170    -2.1490 o          1 P7C      -0.562000
     68 C7           2.4070     5.4870     0.4150 c3         1 P7C      -0.084433
     69 C8           0.4560     6.1210    -1.0430 c3         1 P7C      -0.084433
@<TRIPOS>BOND
     1     1    22 1   
     2     2    31 1   
     3     2    32 1   
     4     2    33 1   
     5     3     5 1   
     6     3     9 1   
     7     4    19 1   
     8     5     6 2   
     9     5    11 1   
    10     6     7 1   
    11     6     8 1   
    12     7     9 2   
    13     7    34 1   
    14     8    10 2   
    15     8    25 1   
    16     9    13 1   
    17    11    12 1   
    18    11    41 1   
    19    12    14 2   
    20    12    15 1   
    21    13    20 1   
    22    13    68 1   
    23    13    69 1   
    24    15    16 1   
    25    15    42 1   
    26    16    17 ar  
    27    16    22 ar  
    28    17    21 ar  
    29    17    43 1   
    30    18    19 ar  
    31    18    21 ar  
    32    18    44 1   
    33    19    22 ar  
    34    20    45 1   
    35    20    46 1   
    36    20    47 1   
    37    21    48 1   
    38    23    25 1   
    39    23    26 1   
    40    23    49 1   
    41    23    50 1   
    42    24    27 1   
    43    24    28 1   
    44    24    67 2   
    45    25    29 1   
    46    26    27 1   
    47    26    51 1   
    48    26    52 1   
    49    27    30 1   
    50    28    29 1   
    51    28    53 1   
    52    28    54 1   
    53    29    55 1   
    54    29    56 1   
    55    30    31 1   
    56    30    57 1   
    57    30    58 1   
    58    31    59 1   
    59    31    60 1   
    60    32    61 1   
    61    32    62 1   
    62    32    63 1   
    63    33    64 1   
    64    33    65 1   
    65    33    66 1   
    66    35    68 1   
    67    36    68 1   
    68    37    68 1   
    69    38    69 1   
    70    39    69 1   
    71    40    69 1   
@<TRIPOS>SUBSTRUCTURE
     1 P7C         1 TEMP              0 ****  ****    0 ROOT
