@<TRIPOS>MOLECULE
P7D
   43    44     1     0     0
SMALL
bcc


@<TRIPOS>ATOM
      1 C10          3.5930     0.0610    -0.8640 ca         1 P7D      -0.136000
      2 C15         -1.0060    -1.7380    -1.3800 cc         1 P7D      -0.131300
      3 C17         -2.5160    -0.6090    -0.1420 cd         1 P7D      -0.137800
      4 C20         -5.7140     1.4640     0.0540 c          1 P7D       0.672300
      5 C24         -1.5710    -1.1190     0.7100 cc         1 P7D      -0.091300
      6 C01          6.6300     3.0160    -0.9110 c3         1 P7D       0.147600
      7 C03          6.5430     1.2250     0.6710 c3         1 P7D       0.147600
      8 C04          4.5210     2.2590    -0.0840 c3         1 P7D       0.197100
      9 C05          3.6200     1.0680     0.0980 ca         1 P7D      -0.016300
     10 C06          2.7860     0.9660     1.2070 ca         1 P7D      -0.136000
     11 C07          1.9280    -0.1110     1.3580 ca         1 P7D      -0.029000
     12 C08          1.9090    -1.0910     0.3760 ca         1 P7D      -0.307500
     13 C09          2.7380    -1.0200    -0.7370 ca         1 P7D      -0.029000
     14 C16         -2.1470    -1.0090    -1.4680 cd         1 P7D      -0.155000
     15 C18         -3.6530     0.1700     0.2900 cf         1 P7D       0.013800
     16 C19         -4.6000     0.6750    -0.5090 ce         1 P7D      -0.270200
     17 N02          5.8730     1.8780    -0.4330 n3         1 P7D      -0.713600
     18 N14         -0.6630    -1.8170    -0.0420 na         1 P7D      -0.195600
     19 N22         -6.5850     1.8820    -0.8930 ns         1 P7D      -0.448400
     20 O12          1.1710    -3.4940    -0.3750 o          1 P7D      -0.587800
     21 O13          0.5620    -2.7090     1.9470 o          1 P7D      -0.587800
     22 O21         -5.8620     1.6900     1.2440 o          1 P7D      -0.576100
     23 O23         -7.5520     2.7810    -0.5570 oh         1 P7D      -0.393100
     24 S11          0.7980    -2.4420     0.5450 sy         1 P7D       1.318300
     25 H1           4.2540     0.1190    -1.7190 ha         1 P7D       0.147500
     26 H2          -0.4170    -2.2190    -2.1430 h4         1 P7D       0.186000
     27 H3          -1.4890    -1.0420     1.7820 h4         1 P7D       0.190000
     28 H4           7.6320     2.6970    -1.2020 h1         1 P7D       0.034867
     29 H5           6.1460     3.4450    -1.7890 h1         1 P7D       0.034867
     30 H6           6.7380     3.8140    -0.1610 h1         1 P7D       0.034867
     31 H7           6.6320     1.8680     1.5610 h1         1 P7D       0.034867
     32 H8           6.0070     0.3230     0.9660 h1         1 P7D       0.034867
     33 H9           7.5480     0.9260     0.3710 h1         1 P7D       0.034867
     34 H10          4.1150     2.8670    -0.8980 h1         1 P7D       0.045700
     35 H11          4.4840     2.8900     0.8200 h1         1 P7D       0.045700
     36 H12          2.8110     1.7320     1.9720 ha         1 P7D       0.147500
     37 H13          1.2960    -0.1750     2.2340 ha         1 P7D       0.155000
     38 H14          2.7270    -1.7900    -1.4960 ha         1 P7D       0.155000
     39 H15         -2.6750    -0.7920    -2.3830 ha         1 P7D       0.154000
     40 H16         -3.7260     0.3510     1.3570 ha         1 P7D       0.145000
     41 H17         -4.5720     0.5160    -1.5810 ha         1 P7D       0.130000
     42 H19         -6.3420     1.8810    -1.8740 hn         1 P7D       0.329500
     43 H20         -8.3680     2.2740    -0.4670 ho         1 P7D       0.408000
@<TRIPOS>BOND
     1     1     9 ar  
     2     1    13 ar  
     3     1    25 1   
     4     2    14 2   
     5     2    18 1   
     6     2    26 1   
     7     3     5 2   
     8     3    14 1   
     9     3    15 1   
    10     4    16 1   
    11     4    19 1   
    12     4    22 2   
    13     5    18 1   
    14     5    27 1   
    15     6    17 1   
    16     6    28 1   
    17     6    29 1   
    18     6    30 1   
    19     7    17 1   
    20     7    31 1   
    21     7    32 1   
    22     7    33 1   
    23     8     9 1   
    24     8    17 1   
    25     8    34 1   
    26     8    35 1   
    27     9    10 ar  
    28    10    11 ar  
    29    10    36 1   
    30    11    12 ar  
    31    11    37 1   
    32    12    13 ar  
    33    12    24 1   
    34    13    38 1   
    35    14    39 1   
    36    15    16 2   
    37    15    40 1   
    38    16    41 1   
    39    18    24 1   
    40    19    23 1   
    41    19    42 1   
    42    20    24 2   
    43    21    24 2   
    44    23    43 1   
@<TRIPOS>SUBSTRUCTURE
     1 P7D         1 TEMP              0 ****  ****    0 ROOT
