@<TRIPOS>MOLECULE
P7D
   43    44     1     0     0
SMALL
No Charge or Current Charge


@<TRIPOS>ATOM
      1 C10          3.5720     0.2170    -1.0990 ca         1 P7D      -0.118000
      2 C15         -1.1900    -1.7050    -1.3760 cc         1 P7D      -0.164000
      3 C17         -2.6710    -0.5770    -0.0660 cd         1 P7D      -0.137800
      4 C20         -6.0630     1.3520     0.1050 c          1 P7D       0.605300
      5 C24         -1.6370    -0.9630     0.7490 cc         1 P7D      -0.124000
      6 C01          7.1050     2.9590    -0.7440 c3         1 P7D       0.147600
      7 C03          6.6800     1.1420     0.8590 c3         1 P7D       0.147600
      8 C04          4.7850     2.2890    -0.2540 c3         1 P7D       0.197100
      9 C05          3.7990     1.1390    -0.0590 ca         1 P7D      -0.016300
     10 C06          3.1050     0.9880     1.1570 ca         1 P7D      -0.118000
     11 C07          2.1970    -0.0700     1.3350 ca         1 P7D      -0.011000
     12 C08          1.9760    -0.9940     0.2920 ca         1 P7D      -0.307500
     13 C09          2.6660    -0.8440    -0.9300 ca         1 P7D      -0.011000
     14 C16         -2.3840    -1.0390    -1.3700 cd         1 P7D      -0.137000
     15 C18         -3.8440     0.1790     0.3730 cf         1 P7D      -0.036200
     16 C19         -4.8940     0.5840    -0.3980 ce         1 P7D      -0.320200
     17 N02          6.2030     1.8540    -0.3510 n3         1 P7D      -0.713600
     18 N14         -0.7250    -1.6590    -0.0560 na         1 P7D      -0.094200
     19 N22         -7.0090     1.6500    -0.8660 ns         1 P7D      -0.381400
     20 O12          1.1480    -3.4160    -0.4430 o          1 P7D      -0.517000
     21 O13          0.6350    -2.5840     1.9540 o          1 P7D      -0.517000
     22 O21         -6.1850     1.6850     1.2760 o          1 P7D      -0.576100
     23 O23         -8.0730     2.5990    -0.6080 oh         1 P7D      -0.432100
     24 S11          0.7960    -2.3500     0.5090 sy         1 P7D       1.176700
     25 H1           4.1050     0.3250    -2.0410 ha         1 P7D       0.129500
     26 H2          -0.6480    -2.1910    -2.1800 h4         1 P7D       0.168000
     27 H3          -1.4770    -0.8040     1.8100 h4         1 P7D       0.172000
     28 H4           8.1300     2.5920    -0.8870 h1         1 P7D       0.034867
     29 H5           6.7760     3.4130    -1.6880 h1         1 P7D       0.034867
     30 H6           7.1250     3.7420     0.0260 h1         1 P7D       0.034867
     31 H7           6.6430     1.7980     1.7400 h1         1 P7D       0.034867
     32 H8           6.0660     0.2550     1.0640 h1         1 P7D       0.034867
     33 H9           7.7170     0.8050     0.7260 h1         1 P7D       0.034867
     34 H10          4.4980     2.8190    -1.1720 h1         1 P7D       0.045700
     35 H11          4.6690     3.0060     0.5710 h1         1 P7D       0.045700
     36 H12          3.2700     1.6930     1.9690 ha         1 P7D       0.129500
     37 H13          1.6700    -0.1640     2.2840 ha         1 P7D       0.137000
     38 H14          2.5060    -1.5420    -1.7500 ha         1 P7D       0.137000
     39 H15         -3.0110    -0.8920    -2.2440 ha         1 P7D       0.136000
     40 H16         -3.8560     0.4350     1.4370 ha         1 P7D       0.195000
     41 H17         -4.8980     0.3380    -1.4560 ha         1 P7D       0.180000
     42 H19         -6.7890     1.4770    -1.8450 hn         1 P7D       0.329500
     43 H20         -8.8860     2.1200    -0.8980 ho         1 P7D       0.447000
@<TRIPOS>BOND
     1     1     9 ar  
     2     1    13 ar  
     3     1    25 1   
     4     2    14 2   
     5     2    18 1   
     6     2    26 1   
     7     3     5 2   
     8     3    14 1   
     9     3    15 1   
    10     4    16 1   
    11     4    19 1   
    12     4    22 2   
    13     5    18 1   
    14     5    27 1   
    15     6    17 1   
    16     6    28 1   
    17     6    29 1   
    18     6    30 1   
    19     7    17 1   
    20     7    31 1   
    21     7    32 1   
    22     7    33 1   
    23     8     9 1   
    24     8    17 1   
    25     8    34 1   
    26     8    35 1   
    27     9    10 ar  
    28    10    11 ar  
    29    10    36 1   
    30    11    12 ar  
    31    11    37 1   
    32    12    13 ar  
    33    12    24 1   
    34    13    38 1   
    35    14    39 1   
    36    15    16 2   
    37    15    40 1   
    38    16    41 1   
    39    18    24 1   
    40    19    23 1   
    41    19    42 1   
    42    20    24 2   
    43    21    24 2   
    44    23    43 1   
@<TRIPOS>SUBSTRUCTURE
     1 P7D         1 TEMP              0 ****  ****    0 ROOT
