@<TRIPOS>MOLECULE
P7E
   36    37     1     0     0
SMALL
No Charge or Current Charge


@<TRIPOS>ATOM
      1 C01         22.8650    24.0680    -3.1920 c3         1 P7E      -0.177100
      2 C02         21.6190    24.8150    -2.7110 c          1 P7E       0.608100
      3 C04         19.3300    24.7980    -1.6820 c6         1 P7E       0.098000
      4 C05         18.3700    23.9700    -0.7900 c6         1 P7E       0.169800
      5 C09         17.4990    21.5050     1.0710 ca         1 P7E      -0.278500
      6 C10         18.2570    20.3500     1.3550 ca         1 P7E      -0.032000
      7 C11         18.7790    20.1470     2.6450 ca         1 P7E      -0.081500
      8 C12         18.5500    21.0920     3.6660 ca         1 P7E      -0.148600
      9 C13         17.7860    22.2440     3.3790 ca         1 P7E      -0.081500
     10 C14         17.2620    22.4490     2.0910 ca         1 P7E      -0.032000
     11 C15         19.1170    20.8600     5.0430 c          1 P7E       0.576500
     12 C17         19.3520    21.8900    -1.5270 c6         1 P7E       0.169800
     13 C18         20.3600    22.6300    -2.4450 c6         1 P7E       0.098000
     14 N03         20.5650    24.0790    -2.1240 n          1 P7E      -0.417800
     15 N06         18.0790    22.6360    -1.3710 n3         1 P7E      -0.721500
     16 O08         15.6850    22.6820    -0.5200 o          1 P7E      -0.529000
     17 O16         16.7260    20.4860    -1.2890 o          1 P7E      -0.529000
     18 O19         21.5700    26.0360    -2.7820 o          1 P7E      -0.596100
     19 S07         16.8320    21.7700    -0.5860 sy         1 P7E       1.153600
     20 H1          23.6550    24.7470    -3.5310 hc         1 P7E       0.061700
     21 H2          23.2180    23.4040    -2.3950 hc         1 P7E       0.061700
     22 H3          22.5810    23.3680    -3.9850 hc         1 P7E       0.061700
     23 H4          19.6090    25.7090    -1.1350 h1         1 P7E       0.068700
     24 H5          18.7800    25.1170    -2.5790 h1         1 P7E       0.068700
     25 H6          18.8260    23.8640     0.2050 h1         1 P7E       0.063700
     26 H7          17.4470    24.5530    -0.6590 h1         1 P7E       0.063700
     27 H8          18.4460    19.6060     0.5820 ha         1 P7E       0.139500
     28 H9          19.3640    19.2510     2.8470 ha         1 P7E       0.130500
     29 H10         17.5950    22.9840     4.1540 ha         1 P7E       0.130500
     30 H11         16.6750    23.3440     1.8920 ha         1 P7E       0.139500
     31 H12         19.7040    19.9240     5.1740 h4         1 P7E      -0.003800
     32 H15         19.1750    20.8930    -1.9570 h1         1 P7E       0.063700
     33 H16         19.8270    21.7340    -0.5470 h1         1 P7E       0.063700
     34 H17         20.0030    22.5550    -3.4820 h1         1 P7E       0.068700
     35 H18         21.3150    22.0890    -2.3930 h1         1 P7E       0.068700
     36 O1          18.9590    21.6350     5.9810 o          1 P7E      -0.499100
@<TRIPOS>BOND
     1     1     2 1   
     2     1    20 1   
     3     1    21 1   
     4     1    22 1   
     5     2    14 1   
     6     2    18 2   
     7     3     4 1   
     8     3    14 1   
     9     3    23 1   
    10     3    24 1   
    11     4    15 1   
    12     4    25 1   
    13     4    26 1   
    14     5     6 ar  
    15     5    10 ar  
    16     5    19 1   
    17     6     7 ar  
    18     6    27 1   
    19     7     8 ar  
    20     7    28 1   
    21     8     9 ar  
    22     8    11 1   
    23     9    10 ar  
    24     9    29 1   
    25    10    30 1   
    26    11    31 1   
    27    11    36 2   
    28    12    13 1   
    29    12    15 1   
    30    12    32 1   
    31    12    33 1   
    32    13    14 1   
    33    13    34 1   
    34    13    35 1   
    35    15    19 1   
    36    16    19 2   
    37    17    19 2   
@<TRIPOS>SUBSTRUCTURE
     1 P7E         1 TEMP              0 ****  ****    0 ROOT
