@<TRIPOS>MOLECULE
P7E
   36    37     1     0     0
SMALL
abcg2


@<TRIPOS>ATOM
      1 C01         22.7300    23.7760    -2.5820 c3         1 P7E      -0.177100
      2 C02         21.5330    24.6240    -2.2260 c          1 P7E       0.608100
      3 C04         19.1000    24.7720    -2.0210 c6         1 P7E       0.098000
      4 C05         18.3970    24.0200    -0.9020 c6         1 P7E       0.169800
      5 C09         17.6220    21.5370     1.1030 ca         1 P7E      -0.278500
      6 C10         18.4190    20.4270     1.3490 ca         1 P7E      -0.032000
      7 C11         18.9600    20.2630     2.6140 ca         1 P7E      -0.081500
      8 C12         18.7030    21.1950     3.6140 ca         1 P7E      -0.148600
      9 C13         17.8980    22.3020     3.3520 ca         1 P7E      -0.081500
     10 C14         17.3540    22.4770     2.0930 ca         1 P7E      -0.032000
     11 C15         19.2920    20.9820     4.9510 c          1 P7E       0.576500
     12 C17         19.3640    21.9360    -1.7240 c6         1 P7E       0.169800
     13 C18         20.0530    22.7150    -2.8350 c6         1 P7E       0.098000
     14 N03         20.3070    24.0760    -2.4150 n          1 P7E      -0.417800
     15 N06         18.1430    22.6470    -1.3430 n3         1 P7E      -0.721500
     16 O08         15.8180    22.6580    -0.4260 o          1 P7E      -0.529000
     17 O16         16.8670    20.5030    -1.1840 o          1 P7E      -0.529000
     18 O19         21.6710    25.7600    -1.7930 o          1 P7E      -0.596100
     19 S07         16.9820    21.7960    -0.5340 sy         1 P7E       1.153600
     20 H1          23.6360    24.3510    -2.4090 hc         1 P7E       0.061700
     21 H2          22.7760    22.8720    -1.9740 hc         1 P7E       0.061700
     22 H3          22.7140    23.4660    -3.6280 hc         1 P7E       0.061700
     23 H4          19.3410    25.7770    -1.6870 h1         1 P7E       0.068700
     24 H5          18.4300    24.8500    -2.8820 h1         1 P7E       0.068700
     25 H6          19.0210    24.0310     0.0000 h1         1 P7E       0.063700
     26 H7          17.4560    24.5180    -0.6780 h1         1 P7E       0.063700
     27 H8          18.6110    19.6920     0.5790 ha         1 P7E       0.139500
     28 H9          19.5810    19.4010     2.8230 ha         1 P7E       0.130500
     29 H10         17.6910    23.0230     4.1310 ha         1 P7E       0.130500
     30 H11         16.7180    23.3290     1.8960 ha         1 P7E       0.139500
     31 H12         19.9080    20.0710     5.0430 h4         1 P7E      -0.003800
     32 H15         19.1190    20.9420    -2.0900 h1         1 P7E       0.063700
     33 H16         20.0480    21.8390    -0.8720 h1         1 P7E       0.063700
     34 H17         19.4140    22.7240    -3.7220 h1         1 P7E       0.068700
     35 H18         20.9740    22.2060    -3.1030 h1         1 P7E       0.068700
     36 O1          19.1300    21.7250     5.8880 o          1 P7E      -0.499100
@<TRIPOS>BOND
     1     1     2 1   
     2     1    20 1   
     3     1    21 1   
     4     1    22 1   
     5     2    14 1   
     6     2    18 2   
     7     3     4 1   
     8     3    14 1   
     9     3    23 1   
    10     3    24 1   
    11     4    15 1   
    12     4    25 1   
    13     4    26 1   
    14     5     6 ar  
    15     5    10 ar  
    16     5    19 1   
    17     6     7 ar  
    18     6    27 1   
    19     7     8 ar  
    20     7    28 1   
    21     8     9 ar  
    22     8    11 1   
    23     9    10 ar  
    24     9    29 1   
    25    10    30 1   
    26    11    31 1   
    27    11    36 2   
    28    12    13 1   
    29    12    15 1   
    30    12    32 1   
    31    12    33 1   
    32    13    14 1   
    33    13    34 1   
    34    13    35 1   
    35    15    19 1   
    36    16    19 2   
    37    17    19 2   
@<TRIPOS>SUBSTRUCTURE
     1 P7E         1 TEMP              0 ****  ****    0 ROOT
