@<TRIPOS>MOLECULE
P7F
   65    68     1     0     0
SMALL
bcc


@<TRIPOS>ATOM
      1 C09          0.9520     1.7490    -1.8780 c3         1 P7F       0.245800
      2 C10         -1.1510     1.2340    -3.1220 c3         1 P7F       0.287100
      3 C11          1.2690     0.7090    -0.8070 c3         1 P7F      -0.113400
      4 C12         -1.3060    -0.2320    -2.7980 ca         1 P7F      -0.104300
      5 C13         -1.1070     2.7640    -1.2040 cc         1 P7F       0.791500
      6 C14          2.7680     0.5930    -0.6280 c3         1 P7F       0.148400
      7 C15         -2.0400    -0.6310    -1.6900 ca         1 P7F      -0.175000
      8 C16         -0.6920    -1.1920    -3.5960 ca         1 P7F      -0.195000
      9 C17         -2.1590    -1.9790    -1.3530 ca         1 P7F       0.211100
     10 C18         -2.8030     3.7900    -0.3650 ca         1 P7F       0.009100
     11 C19         -1.6490     4.0850     0.3550 ca         1 P7F       0.111400
     12 C20         -3.0460    -3.5960     0.1600 c3         1 P7F      -0.002900
     13 C21         -0.8190    -2.5340    -3.2710 ca         1 P7F      -0.098000
     14 C22         -1.5410    -2.9400    -2.1580 ca         1 P7F      -0.189000
     15 C23         -4.1290    -3.6020     1.2310 c3         1 P7F      -0.062400
     16 C24         -4.0490     4.2940    -0.0800 ca         1 P7F      -0.098000
     17 C25         -1.7280     4.9420     1.4440 ca         1 P7F      -0.097000
     18 C26          4.3070    -0.6560     0.6840 ca         1 P7F       0.124100
     19 C27         -4.1160     5.1550     1.0160 ca         1 P7F      -0.144000
     20 C28         -2.9780     5.4680     1.7590 ca         1 P7F      -0.137000
     21 C29         -5.4830    -3.1070     0.7420 c3         1 P7F      -0.086100
     22 C30         -1.7290    -4.1770     0.7260 c          1 P7F       0.909600
     23 C31          4.5090    -1.6280     1.6680 ca         1 P7F      -0.155000
     24 C32          5.4140    -0.0470     0.1110 ca         1 P7F      -0.155000
     25 C33          5.7840    -1.9760     2.0630 ca         1 P7F      -0.155000
     26 C34          6.7040    -0.3990     0.5100 ca         1 P7F      -0.155000
     27 C35          6.9010    -1.3650     1.4870 ca         1 P7F       0.086100
     28 C36          9.2610    -1.1830     1.3740 c3         1 P7F       0.130700
     29 N07         -0.4690     1.9800    -2.0770 nh         1 P7F      -0.734600
     30 N08         -0.5830     3.4090    -0.2050 nd         1 P7F      -0.670100
     31 O01         -2.4400     2.9340    -1.3660 os         1 P7F      -0.306700
     32 O02          3.0220    -0.3830     0.3640 os         1 P7F      -0.294900
     33 O03         -2.9060    -2.2520    -0.2740 os         1 P7F      -0.308900
     34 O04         -1.7090    -5.4210     0.8170 o          1 P7F      -0.815300
     35 O05         -0.8470    -3.3730     1.0650 o          1 P7F      -0.815300
     36 O06          8.1090    -1.7710     1.9380 os         1 P7F      -0.322900
     37 H091         1.4260     2.6990    -1.6260 h1         1 P7F       0.048700
     38 H092         1.3630     1.4360    -2.8390 h1         1 P7F       0.048700
     39 H102        -0.5690     1.3440    -4.0400 h1         1 P7F       0.053700
     40 H101        -2.1210     1.6880    -3.3200 h1         1 P7F       0.053700
     41 H112         0.8050     1.0030     0.1370 hc         1 P7F       0.090700
     42 H111         0.8550    -0.2600    -1.0920 hc         1 P7F       0.090700
     43 H141         3.2430     0.3090    -1.5760 h1         1 P7F       0.020700
     44 H142         3.1900     1.5620    -0.3310 h1         1 P7F       0.020700
     45 H151        -2.5330     0.1020    -1.0610 ha         1 P7F       0.139000
     46 H161        -0.1150    -0.8910    -4.4620 ha         1 P7F       0.108000
     47 H201        -3.3890    -4.2190    -0.6770 h1         1 P7F       0.024700
     48 H211        -0.3410    -3.2840    -3.8880 ha         1 P7F       0.116000
     49 H221        -1.6080    -3.9960    -1.9370 ha         1 P7F       0.161000
     50 H232        -4.2220    -4.6290     1.5880 hc         1 P7F       0.053700
     51 H231        -3.7960    -3.0070     2.0870 hc         1 P7F       0.053700
     52 H241        -4.9250     4.0450    -0.6640 ha         1 P7F       0.144000
     53 H251        -0.8520     5.1920     2.0270 ha         1 P7F       0.144000
     54 H271        -5.0690     5.5860     1.2910 ha         1 P7F       0.126000
     55 H281        -3.0700     6.1400     2.6030 ha         1 P7F       0.124000
     56 H292        -5.8290    -3.6930    -0.1120 hc         1 P7F       0.018033
     57 H291        -6.2340    -3.1960     1.5280 hc         1 P7F       0.018033
     58 H293        -5.4490    -2.0620     0.4370 hc         1 P7F       0.018033
     59 H311         3.6540    -2.1120     2.1220 ha         1 P7F       0.148000
     60 H321         5.3120     0.7110    -0.6540 ha         1 P7F       0.148000
     61 H331         5.9210    -2.7320     2.8260 ha         1 P7F       0.133000
     62 H341         7.5360     0.1030     0.0360 ha         1 P7F       0.133000
     63 H363         9.3330    -1.3670     0.2990 h1         1 P7F       0.032367
     64 H362         9.2970    -0.1030     1.5460 h1         1 P7F       0.032367
     65 H361        10.1170    -1.6410     1.8650 h1         1 P7F       0.032367
@<TRIPOS>BOND
     1     1     3 1   
     2     1    29 1   
     3     1    37 1   
     4     1    38 1   
     5     2     4 1   
     6     2    29 1   
     7     2    39 1   
     8     2    40 1   
     9     3     6 1   
    10     3    41 1   
    11     3    42 1   
    12     4     7 ar  
    13     4     8 ar  
    14     5    29 1   
    15     5    30 2   
    16     5    31 1   
    17     6    32 1   
    18     6    43 1   
    19     6    44 1   
    20     7     9 ar  
    21     7    45 1   
    22     8    13 ar  
    23     8    46 1   
    24     9    14 ar  
    25     9    33 1   
    26    10    11 ar  
    27    10    16 ar  
    28    10    31 1   
    29    11    17 ar  
    30    11    30 1   
    31    12    15 1   
    32    12    22 1   
    33    12    33 1   
    34    12    47 1   
    35    13    14 ar  
    36    13    48 1   
    37    14    49 1   
    38    15    21 1   
    39    15    50 1   
    40    15    51 1   
    41    16    19 ar  
    42    16    52 1   
    43    17    20 ar  
    44    17    53 1   
    45    18    23 ar  
    46    18    24 ar  
    47    18    32 1   
    48    19    20 ar  
    49    19    54 1   
    50    20    55 1   
    51    21    56 1   
    52    21    57 1   
    53    21    58 1   
    54    22    34 1   
    55    22    35 1   
    56    23    25 ar  
    57    23    59 1   
    58    24    26 ar  
    59    24    60 1   
    60    25    27 ar  
    61    25    61 1   
    62    26    27 ar  
    63    26    62 1   
    64    27    36 1   
    65    28    36 1   
    66    28    63 1   
    67    28    64 1   
    68    28    65 1   
@<TRIPOS>SUBSTRUCTURE
     1 P7F         1 TEMP              0 ****  ****    0 ROOT
