@<TRIPOS>MOLECULE
P7F
   65    68     1     0     0
SMALL
No Charge or Current Charge


@<TRIPOS>ATOM
      1 C09          1.0430     1.8460    -1.9030 c3         1 P7F       0.245800
      2 C10         -1.1110     1.1450    -3.0010 c3         1 P7F       0.287100
      3 C11          1.5140     0.8980    -0.7850 c3         1 P7F      -0.113400
      4 C12         -1.2590    -0.3160    -2.5870 ca         1 P7F      -0.104300
      5 C13         -1.1250     2.7810    -1.1240 cc         1 P7F       0.791500
      6 C14          3.0440     0.7600    -0.7370 c3         1 P7F       0.171600
      7 C15         -2.2420    -0.6940    -1.6500 ca         1 P7F      -0.157000
      8 C16         -0.4090    -1.3020    -3.1250 ca         1 P7F      -0.177000
      9 C17         -2.3790    -2.0340    -1.2510 ca         1 P7F       0.211100
     10 C18         -2.8110     3.6800    -0.2130 ca         1 P7F       0.009100
     11 C19         -1.6720     4.1460     0.3760 ca         1 P7F       0.111400
     12 C20         -3.5800    -3.6650     0.2010 c3         1 P7F       0.020300
     13 C21         -0.5410    -2.6440    -2.7350 ca         1 P7F      -0.080000
     14 C22         -1.5250    -3.0140    -1.8020 ca         1 P7F      -0.171000
     15 C23         -4.9580    -3.6570     0.9110 c3         1 P7F      -0.062400
     16 C24         -4.0880     4.0950     0.1830 ca         1 P7F      -0.080000
     17 C25         -1.7280     5.0780     1.4220 ca         1 P7F      -0.079000
     18 C26          4.6660    -0.4820     0.6430 ca         1 P7F       0.124100
     19 C27         -4.1750     5.0330     1.2340 ca         1 P7F      -0.126000
     20 C28         -2.9990     5.5230     1.8510 ca         1 P7F      -0.119000
     21 C29         -6.1490    -3.3890    -0.0340 c3         1 P7F      -0.086100
     22 C30         -2.4480    -4.1180     1.1880 c          1 P7F       0.699000
     23 C31          4.8750    -1.3730     1.7080 ca         1 P7F      -0.137000
     24 C32          5.7770     0.0260    -0.0670 ca         1 P7F      -0.137000
     25 C33          6.1790    -1.7580     2.0680 ca         1 P7F      -0.137000
     26 C34          7.0830    -0.3590     0.2940 ca         1 P7F      -0.137000
     27 C35          7.2870    -1.2550     1.3660 ca         1 P7F       0.086100
     28 C36          9.7420    -1.2120     1.1110 c3         1 P7F       0.153900
     29 N07         -0.4250     1.9690    -1.9860 nh         1 P7F      -0.734600
     30 N08         -0.5610     3.5750    -0.2020 nd         1 P7F      -0.670100
     31 O01         -2.5130     2.7950    -1.1920 os         1 P7F      -0.306700
     32 O02          3.3650    -0.1400     0.3340 os         1 P7F      -0.318100
     33 O03         -3.3760    -2.3330    -0.3400 os         1 P7F      -0.332100
     34 O04         -2.3570    -5.3130     1.4360 o          1 P7F      -0.710000
     35 O05         -1.6630    -3.2890     1.6310 o          1 P7F      -0.710000
     36 O06          8.5430    -1.6670     1.7640 os         1 P7F      -0.346100
     37 H091         1.4920     2.8360    -1.7440 h1         1 P7F       0.048700
     38 H092         1.4380     1.4750    -2.8590 h1         1 P7F       0.048700
     39 H102        -0.5510     1.1890    -3.9450 h1         1 P7F       0.053700
     40 H101        -2.1060     1.5480    -3.2300 h1         1 P7F       0.053700
     41 H112         1.1570     1.2710     0.1820 hc         1 P7F       0.090700
     42 H111         1.0700    -0.0920    -0.9350 hc         1 P7F       0.090700
     43 H141         3.4060     0.3670    -1.6960 h1         1 P7F       0.020700
     44 H142         3.4960     1.7460    -0.5640 h1         1 P7F       0.020700
     45 H151        -2.9050     0.0540    -1.2250 ha         1 P7F       0.121000
     46 H161         0.3580    -1.0270    -3.8460 ha         1 P7F       0.090000
     47 H201        -3.6300    -4.4000    -0.6130 h1         1 P7F       0.024700
     48 H211         0.1190    -3.3990    -3.1570 ha         1 P7F       0.098000
     49 H221        -1.6080    -4.0590    -1.5210 ha         1 P7F       0.143000
     50 H232        -5.1130    -4.6290     1.3950 hc         1 P7F       0.053700
     51 H231        -4.9510    -2.9060     1.7110 hc         1 P7F       0.053700
     52 H241        -4.9800     3.7070    -0.3040 ha         1 P7F       0.126000
     53 H251        -0.8180     5.4460     1.8880 ha         1 P7F       0.126000
     54 H271        -5.1490     5.3810     1.5700 ha         1 P7F       0.108000
     55 H281        -3.0720     6.2460     2.6610 ha         1 P7F       0.106000
     56 H292        -6.1820    -4.1360    -0.8360 hc         1 P7F       0.018033
     57 H291        -7.0930    -3.4400     0.5200 hc         1 P7F       0.018033
     58 H293        -6.0750    -2.3940    -0.4890 hc         1 P7F       0.018033
     59 H311         4.0220    -1.7670     2.2560 ha         1 P7F       0.130000
     60 H321         5.6490     0.7170    -0.8950 ha         1 P7F       0.130000
     61 H331         6.3310    -2.4480     2.8940 ha         1 P7F       0.115000
     62 H341         7.9190     0.0480    -0.2690 ha         1 P7F       0.115000
     63 H363         9.7420    -1.4970     0.0510 h1         1 P7F       0.032367
     64 H362         9.8350    -0.1210     1.1840 h1         1 P7F       0.032367
     65 H361        10.6250    -1.6610     1.5840 h1         1 P7F       0.032367
@<TRIPOS>BOND
     1     1     3 1   
     2     1    29 1   
     3     1    37 1   
     4     1    38 1   
     5     2     4 1   
     6     2    29 1   
     7     2    39 1   
     8     2    40 1   
     9     3     6 1   
    10     3    41 1   
    11     3    42 1   
    12     4     7 ar  
    13     4     8 ar  
    14     5    29 1   
    15     5    30 2   
    16     5    31 1   
    17     6    32 1   
    18     6    43 1   
    19     6    44 1   
    20     7     9 ar  
    21     7    45 1   
    22     8    13 ar  
    23     8    46 1   
    24     9    14 ar  
    25     9    33 1   
    26    10    11 ar  
    27    10    16 ar  
    28    10    31 1   
    29    11    17 ar  
    30    11    30 1   
    31    12    15 1   
    32    12    22 1   
    33    12    33 1   
    34    12    47 1   
    35    13    14 ar  
    36    13    48 1   
    37    14    49 1   
    38    15    21 1   
    39    15    50 1   
    40    15    51 1   
    41    16    19 ar  
    42    16    52 1   
    43    17    20 ar  
    44    17    53 1   
    45    18    23 ar  
    46    18    24 ar  
    47    18    32 1   
    48    19    20 ar  
    49    19    54 1   
    50    20    55 1   
    51    21    56 1   
    52    21    57 1   
    53    21    58 1   
    54    22    34 1   
    55    22    35 1   
    56    23    25 ar  
    57    23    59 1   
    58    24    26 ar  
    59    24    60 1   
    60    25    27 ar  
    61    25    61 1   
    62    26    27 ar  
    63    26    62 1   
    64    27    36 1   
    65    28    36 1   
    66    28    63 1   
    67    28    64 1   
    68    28    65 1   
@<TRIPOS>SUBSTRUCTURE
     1 P7F         1 TEMP              0 ****  ****    0 ROOT
