@<TRIPOS>MOLECULE
P7J
   48    50     1     0     0
SMALL
abcg2


@<TRIPOS>ATOM
      1 C10          2.6980    -0.3360     1.7220 ca         1 P7J      -0.107500
      2 C15         -2.9440     1.3390    -0.1040 c6         1 P7J      -0.071400
      3 C17         -5.4650     1.2170     0.1100 cy         1 P7J      -0.068700
      4 C20         -5.5230    -0.0990    -0.7120 cy         1 P7J      -0.061000
      5 C21         -6.8600    -0.8200    -0.5510 c3         1 P7J      -0.076100
      6 C22         -5.1810    -0.0600    -2.1930 c3         1 P7J      -0.076100
      7 C01         -3.0530    -0.2030    -0.1130 c6         1 P7J      -0.054700
      8 C02         -2.0140    -0.8390     0.8040 c3         1 P7J       0.161800
      9 C04          0.3400    -1.0930     1.2700 c3         1 P7J       0.200100
     10 C05          1.7350    -0.7590     0.8140 ca         1 P7J      -0.065300
     11 C06          2.0940    -0.8850    -0.5280 ca         1 P7J      -0.107500
     12 C07          3.3830    -0.6030    -0.9450 ca         1 P7J      -0.074000
     13 C08          4.3410    -0.1620    -0.0330 ca         1 P7J      -0.158600
     14 C09          3.9890    -0.0390     1.3080 ca         1 P7J      -0.074000
     15 C11          5.7140     0.1340    -0.5330 c          1 P7J       0.608700
     16 C16         -4.2820     2.0760    -0.3240 c6         1 P7J      -0.064400
     17 C18         -5.0440     0.3660     1.3260 cy         1 P7J      -0.091400
     18 C19         -4.4640    -0.6280     0.2940 cy         1 P7J      -0.066700
     19 N03         -0.6590    -0.5080     0.3990 n7         1 P7J      -0.863400
     20 N13          6.3660     1.0780     0.1840 ns         1 P7J      -0.375400
     21 O12          6.2020    -0.4400    -1.4900 o          1 P7J      -0.557100
     22 O14          7.5650     1.5360    -0.2780 oh         1 P7J      -0.434100
     23 H1           2.4430    -0.2360     2.7700 ha         1 P7J       0.125000
     24 H2          -2.5490     1.6410     0.8710 hc         1 P7J       0.035200
     25 H3          -2.2060     1.6730    -0.8360 hc         1 P7J       0.035200
     26 H4          -6.3850     1.8050     0.1750 hc         1 P7J       0.063700
     27 H5          -7.1930    -0.8840     0.4840 hc         1 P7J       0.034367
     28 H6          -7.6440    -0.3080    -1.1130 hc         1 P7J       0.034367
     29 H7          -6.7900    -1.8400    -0.9360 hc         1 P7J       0.034367
     30 H8          -5.0960    -1.0750    -2.5900 hc         1 P7J       0.034367
     31 H9          -5.9710     0.4440    -2.7550 hc         1 P7J       0.034367
     32 H10         -4.2470     0.4530    -2.4200 hc         1 P7J       0.034367
     33 H11         -2.8550    -0.5830    -1.1210 hc         1 P7J       0.066700
     34 H12         -2.2180    -0.5470     1.8480 h1         1 P7J       0.030200
     35 H13         -2.1200    -1.9280     0.7630 h1         1 P7J       0.030200
     36 H14          0.2110    -2.1810     1.2480 h1         1 P7J       0.039200
     37 H15          1.3540    -1.2040    -1.2510 ha         1 P7J       0.125000
     38 H16          3.6440    -0.7140    -1.9890 ha         1 P7J       0.124500
     39 H17          4.7180     0.2710     2.0470 ha         1 P7J       0.124500
     40 H18         -4.2730     3.0030     0.2550 hc         1 P7J       0.040700
     41 H19         -4.4030     2.3760    -1.3670 hc         1 P7J       0.040700
     42 H20         -4.3610     0.8200     2.0470 hc         1 P7J       0.049200
     43 H21         -5.8890    -0.0420     1.8780 hc         1 P7J       0.049200
     44 H22         -4.5050    -1.6970     0.5300 hc         1 P7J       0.061700
     45 H23          5.8570     1.7550     0.7350 hn         1 P7J       0.329500
     46 H24          8.2360     1.1350     0.2880 ho         1 P7J       0.449000
     47 H25          0.2220    -0.7970     2.3240 h1         1 P7J       0.039200
     48 H26         -0.5430     0.4990     0.4090 hn         1 P7J       0.411000
@<TRIPOS>BOND
     1     1    10 ar  
     2     1    14 ar  
     3     1    23 1   
     4     2     7 1   
     5     2    16 1   
     6     2    24 1   
     7     2    25 1   
     8     3     4 1   
     9     3    16 1   
    10     3    17 1   
    11     3    26 1   
    12     4     5 1   
    13     4     6 1   
    14     4    18 1   
    15     5    27 1   
    16     5    28 1   
    17     5    29 1   
    18     6    30 1   
    19     6    31 1   
    20     6    32 1   
    21     7     8 1   
    22     7    18 1   
    23     7    33 1   
    24     8    19 1   
    25     8    34 1   
    26     8    35 1   
    27     9    10 1   
    28     9    19 1   
    29     9    36 1   
    30     9    47 1   
    31    10    11 ar  
    32    11    12 ar  
    33    11    37 1   
    34    12    13 ar  
    35    12    38 1   
    36    13    14 ar  
    37    13    15 1   
    38    14    39 1   
    39    15    20 1   
    40    15    21 2   
    41    16    40 1   
    42    16    41 1   
    43    17    18 1   
    44    17    42 1   
    45    17    43 1   
    46    18    44 1   
    47    19    48 1   
    48    20    22 1   
    49    20    45 1   
    50    22    46 1   
@<TRIPOS>SUBSTRUCTURE
     1 P7J         1 TEMP              0 ****  ****    0 ROOT
