@<TRIPOS>MOLECULE
P7J
   48    50     1     0     0
SMALL
No Charge or Current Charge


@<TRIPOS>ATOM
      1 C10          2.4840     0.0600     1.4240 ca         1 P7J      -0.107500
      2 C15         -2.8650     1.3380     0.0770 c6         1 P7J      -0.071400
      3 C17         -5.4520     1.2690     0.2390 cy         1 P7J      -0.068700
      4 C20         -5.6180     0.0190    -0.7200 cy         1 P7J      -0.061000
      5 C21         -7.0210    -0.6540    -0.7280 c3         1 P7J      -0.076100
      6 C22         -5.2660     0.1940    -2.2240 c3         1 P7J      -0.076100
      7 C01         -3.0540    -0.2120    -0.0640 c6         1 P7J      -0.054700
      8 C02         -2.0210    -0.9910     0.8030 c3         1 P7J       0.161800
      9 C04          0.4000    -1.3860     1.2190 c3         1 P7J       0.200100
     10 C05          1.7950    -0.9750     0.7650 ca         1 P7J      -0.065300
     11 C06          2.4120    -1.6270    -0.3160 ca         1 P7J      -0.107500
     12 C07          3.7010    -1.2520    -0.7350 ca         1 P7J      -0.074000
     13 C08          4.4010    -0.2120    -0.0810 ca         1 P7J      -0.158600
     14 C09          3.7730     0.4400     1.0090 ca         1 P7J      -0.074000
     15 C11          5.7910     0.1670    -0.5600 c          1 P7J       0.608700
     16 C16         -4.1910     2.1390    -0.0720 c6         1 P7J      -0.064400
     17 C18         -5.1670     0.2290     1.3880 cy         1 P7J      -0.091400
     18 C19         -4.5360    -0.6400     0.2350 cy         1 P7J      -0.066700
     19 N03         -0.6280    -0.7060     0.4120 n7         1 P7J      -0.863400
     20 N13          6.4050     1.2390     0.0830 ns         1 P7J      -0.375400
     21 O12          6.3560    -0.4460    -1.4600 o          1 P7J      -0.557100
     22 O14          7.6120     1.8400    -0.4480 oh         1 P7J      -0.434100
     23 H1           2.0190     0.5730     2.2630 ha         1 P7J       0.125000
     24 H2          -2.4580     1.5580     1.0740 hc         1 P7J       0.035200
     25 H3          -2.1140     1.7030    -0.6370 hc         1 P7J       0.035200
     26 H4          -6.3410     1.8990     0.3610 hc         1 P7J       0.063700
     27 H5          -7.4140    -0.8470     0.2760 hc         1 P7J       0.034367
     28 H6          -7.7580    -0.0230    -1.2390 hc         1 P7J       0.034367
     29 H7          -6.9920    -1.6190    -1.2480 hc         1 P7J       0.034367
     30 H8          -5.2370    -0.7750    -2.7360 hc         1 P7J       0.034367
     31 H9          -6.0120     0.8170    -2.7330 hc         1 P7J       0.034367
     32 H10         -4.2940     0.6680    -2.3910 hc         1 P7J       0.034367
     33 H11         -2.8230    -0.5020    -1.0980 hc         1 P7J       0.066700
     34 H12         -2.1850    -0.7290     1.8580 h1         1 P7J       0.030200
     35 H13         -2.2230    -2.0660     0.6970 h1         1 P7J       0.030200
     36 H14          0.3000    -2.4770     1.1280 h1         1 P7J       0.039200
     37 H15          1.8900    -2.4270    -0.8360 ha         1 P7J       0.125000
     38 H16          4.1520    -1.7750    -1.5760 ha         1 P7J       0.124500
     39 H17          4.2680     1.2400     1.5520 ha         1 P7J       0.124500
     40 H18         -4.1640     3.0010     0.6080 hc         1 P7J       0.040700
     41 H19         -4.2670     2.5670    -1.0800 hc         1 P7J       0.040700
     42 H20         -4.4890     0.5540     2.1850 hc         1 P7J       0.049200
     43 H21         -6.0530    -0.1980     1.8700 hc         1 P7J       0.049200
     44 H22         -4.6150    -1.7270     0.3490 hc         1 P7J       0.061700
     45 H23          5.8550     1.8220     0.7110 hn         1 P7J       0.329500
     46 H24          8.2160     1.8770     0.3320 ho         1 P7J       0.449000
     47 H25          0.2810    -1.1360     2.2830 h1         1 P7J       0.039200
     48 H26         -0.4750     0.3040     0.5010 hn         1 P7J       0.411000
@<TRIPOS>BOND
     1     1    10 ar  
     2     1    14 ar  
     3     1    23 1   
     4     2     7 1   
     5     2    16 1   
     6     2    24 1   
     7     2    25 1   
     8     3     4 1   
     9     3    16 1   
    10     3    17 1   
    11     3    26 1   
    12     4     5 1   
    13     4     6 1   
    14     4    18 1   
    15     5    27 1   
    16     5    28 1   
    17     5    29 1   
    18     6    30 1   
    19     6    31 1   
    20     6    32 1   
    21     7     8 1   
    22     7    18 1   
    23     7    33 1   
    24     8    19 1   
    25     8    34 1   
    26     8    35 1   
    27     9    10 1   
    28     9    19 1   
    29     9    36 1   
    30     9    47 1   
    31    10    11 ar  
    32    11    12 ar  
    33    11    37 1   
    34    12    13 ar  
    35    12    38 1   
    36    13    14 ar  
    37    13    15 1   
    38    14    39 1   
    39    15    20 1   
    40    15    21 2   
    41    16    40 1   
    42    16    41 1   
    43    17    18 1   
    44    17    42 1   
    45    17    43 1   
    46    18    44 1   
    47    19    48 1   
    48    20    22 1   
    49    20    45 1   
    50    22    46 1   
@<TRIPOS>SUBSTRUCTURE
     1 P7J         1 TEMP              0 ****  ****    0 ROOT
