@<TRIPOS>MOLECULE
P7K
   41    44     1     0     0
SMALL
No Charge or Current Charge


@<TRIPOS>ATOM
      1 C4          -7.4740   -43.0470    -4.1250 ca         1 P7K       0.195100
      2 C14        -11.9900   -42.7850    -7.7080 ca         1 P7K      -0.137600
      3 C5          -8.7070   -43.1110    -4.8260 ca         1 P7K      -0.179600
      4 C6          -9.6260   -42.0370    -4.7150 ca         1 P7K      -0.090600
      5 C11        -10.3450   -45.0800    -7.7150 ca         1 P7K      -0.044000
      6 C7          -9.0800   -44.3050    -5.6790 c          1 P7K       0.598300
      7 C8         -10.1760   -44.1120    -6.7050 ca         1 P7K      -0.150600
      8 C9         -11.0330   -42.9830    -6.6600 ca         1 P7K      -0.072600
      9 C10        -10.9430   -42.0720    -5.4500 c          1 P7K       0.592300
     10 C12        -11.3490   -44.9340    -8.6770 ca         1 P7K      -0.117000
     11 C13        -12.1640   -43.7930    -8.6910 ca         1 P7K      -0.027300
     12 C3          -7.1880   -41.9270    -3.3110 ca         1 P7K      -0.201000
     13 C1          -9.3240   -40.9360    -3.8870 ca         1 P7K      -0.108000
     14 C2          -8.1120   -40.8810    -3.1900 ca         1 P7K      -0.052000
     15 C15        -13.2580   -43.7050    -9.7660 c6         1 P7K      -0.074100
     16 C16        -13.8360   -42.2850    -9.9990 c6         1 P7K       0.199000
     17 C17        -14.0880   -41.5990    -8.6440 c6         1 P7K      -0.210400
     18 C18        -12.7820   -41.5010    -7.8630 c          1 P7K       0.594700
     19 O1          -8.5570   -45.4040    -5.5400 o          1 P7K      -0.496100
     20 O2         -11.9200   -41.4820    -5.0030 o          1 P7K      -0.485100
     21 O3         -12.3580   -40.4080    -7.5100 o          1 P7K      -0.497100
     22 C19        -12.8860   -41.4390   -10.8930 c3         1 P7K      -0.086100
     23 O4         -15.0790   -42.3870   -10.6920 oh         1 P7K      -0.648000
     24 O5          -6.5550   -44.0710    -4.2650 os         1 P7K      -0.313100
     25 C20         -5.2840   -44.0800    -3.5920 c3         1 P7K       0.146900
     26 H1          -9.7070   -45.9610    -7.7510 ha         1 P7K       0.142000
     27 H2         -11.4810   -45.7070    -9.4300 ha         1 P7K       0.122000
     28 H3          -6.2540   -41.8480    -2.7640 ha         1 P7K       0.122000
     29 H4         -10.0300   -40.1120    -3.7880 ha         1 P7K       0.141000
     30 H5          -7.8860   -40.0240    -2.5590 ha         1 P7K       0.120000
     31 H6         -14.0700   -44.3830    -9.4660 hc         1 P7K       0.063200
     32 H7         -12.8810   -44.1080   -10.7170 hc         1 P7K       0.063200
     33 H8         -14.5500   -40.6080    -8.7490 hc         1 P7K       0.078200
     34 H9         -14.7460   -42.2670    -8.0730 hc         1 P7K       0.078200
     35 H10        -11.8790   -41.3620   -10.4650 hc         1 P7K       0.051033
     36 H11        -12.7800   -41.8830   -11.8910 hc         1 P7K       0.051033
     37 H12        -13.2680   -40.4200   -11.0280 hc         1 P7K       0.051033
     38 H13        -15.7000   -42.8610   -10.0980 ho         1 P7K       0.443000
     39 H14         -4.7250   -44.9890    -3.8480 h1         1 P7K       0.046367
     40 H15         -4.6780   -43.2150    -3.8890 h1         1 P7K       0.046367
     41 H16         -5.4190   -44.0610    -2.5030 h1         1 P7K       0.046367
@<TRIPOS>BOND
     1     1     3 ar  
     2     1    12 ar  
     3     1    24 1   
     4     2     8 ar  
     5     2    11 ar  
     6     2    18 1   
     7     3     4 ar  
     8     3     6 1   
     9     4     9 1   
    10     4    13 ar  
    11     5     7 ar  
    12     5    10 ar  
    13     5    26 1   
    14     6     7 1   
    15     6    19 2   
    16     7     8 ar  
    17     8     9 1   
    18     9    20 2   
    19    10    11 ar  
    20    10    27 1   
    21    11    15 1   
    22    12    14 ar  
    23    12    28 1   
    24    13    14 ar  
    25    13    29 1   
    26    14    30 1   
    27    15    16 1   
    28    15    31 1   
    29    15    32 1   
    30    16    17 1   
    31    16    22 1   
    32    16    23 1   
    33    17    18 1   
    34    17    33 1   
    35    17    34 1   
    36    18    21 2   
    37    22    35 1   
    38    22    36 1   
    39    22    37 1   
    40    23    38 1   
    41    24    25 1   
    42    25    39 1   
    43    25    40 1   
    44    25    41 1   
@<TRIPOS>SUBSTRUCTURE
     1 P7K         1 TEMP              0 ****  ****    0 ROOT
