@<TRIPOS>MOLECULE
P7K
   41    44     1     0     0
SMALL
abcg2


@<TRIPOS>ATOM
      1 C4          -7.5090   -43.0440    -4.1990 ca         1 P7K       0.195100
      2 C14        -12.0130   -42.8190    -7.6440 ca         1 P7K      -0.137600
      3 C5          -8.7440   -43.1450    -4.8710 ca         1 P7K      -0.179600
      4 C6          -9.6870   -42.1210    -4.7130 ca         1 P7K      -0.090600
      5 C11        -10.3950   -45.0880    -7.6800 ca         1 P7K      -0.044000
      6 C7          -9.0990   -44.3100    -5.7080 c          1 P7K       0.598300
      7 C8         -10.2140   -44.1290    -6.6830 ca         1 P7K      -0.150600
      8 C9         -11.0500   -43.0190    -6.6420 ca         1 P7K      -0.072600
      9 C10        -11.0010   -42.2070    -5.4000 c          1 P7K       0.592300
     10 C12        -11.3880   -44.9290    -8.6180 ca         1 P7K      -0.117000
     11 C13        -12.2050   -43.7960    -8.6220 ca         1 P7K      -0.027300
     12 C3          -7.2580   -41.9230    -3.4030 ca         1 P7K      -0.201000
     13 C1          -9.4420   -41.0310    -3.8960 ca         1 P7K      -0.108000
     14 C2          -8.2160   -40.9360    -3.2550 ca         1 P7K      -0.052000
     15 C15        -13.2900   -43.6910    -9.6550 c6         1 P7K      -0.074100
     16 C16        -13.7390   -42.2610    -9.9570 c6         1 P7K       0.199000
     17 C17        -13.9780   -41.5440    -8.6170 c6         1 P7K      -0.210400
     18 C18        -12.7100   -41.5090    -7.8140 c          1 P7K       0.594700
     19 O1          -8.5090   -45.3690    -5.6620 o          1 P7K      -0.496100
     20 O2         -11.9910   -41.7000    -4.9250 o          1 P7K      -0.485100
     21 O3         -12.2160   -40.4790    -7.4170 o          1 P7K      -0.497100
     22 C19        -12.6980   -41.5240   -10.7880 c3         1 P7K      -0.086100
     23 O4         -14.9190   -42.2700   -10.7290 oh         1 P7K      -0.648000
     24 O5          -6.6220   -44.0220    -4.3700 os         1 P7K      -0.313100
     25 C20         -5.3520   -43.9250    -3.7470 c3         1 P7K       0.146900
     26 H1          -9.7540   -45.9580    -7.7150 ha         1 P7K       0.142000
     27 H2         -11.5290   -45.6830    -9.3820 ha         1 P7K       0.122000
     28 H3          -6.3150   -41.8140    -2.8870 ha         1 P7K       0.122000
     29 H4         -10.1860   -40.2560    -3.7740 ha         1 P7K       0.141000
     30 H5          -7.9980   -40.0810    -2.6290 ha         1 P7K       0.120000
     31 H6         -14.1490   -44.2580    -9.2730 hc         1 P7K       0.063200
     32 H7         -12.9770   -44.1910   -10.5750 hc         1 P7K       0.063200
     33 H8         -14.3380   -40.5270    -8.7800 hc         1 P7K       0.078200
     34 H9         -14.7380   -42.0930    -8.0470 hc         1 P7K       0.078200
     35 H10        -11.7300   -41.4860   -10.2880 hc         1 P7K       0.051033
     36 H11        -12.5510   -42.0230   -11.7460 hc         1 P7K       0.051033
     37 H12        -13.0130   -40.4970   -10.9800 hc         1 P7K       0.051033
     38 H13        -15.6020   -42.7530   -10.2520 ho         1 P7K       0.443000
     39 H14         -4.8020   -44.8120    -4.0470 h1         1 P7K       0.046367
     40 H15         -4.8040   -43.0390    -4.0770 h1         1 P7K       0.046367
     41 H16         -5.4350   -43.9110    -2.6580 h1         1 P7K       0.046367
@<TRIPOS>BOND
     1     1     3 ar  
     2     1    12 ar  
     3     1    24 1   
     4     2     8 ar  
     5     2    11 ar  
     6     2    18 1   
     7     3     4 ar  
     8     3     6 1   
     9     4     9 1   
    10     4    13 ar  
    11     5     7 ar  
    12     5    10 ar  
    13     5    26 1   
    14     6     7 1   
    15     6    19 2   
    16     7     8 ar  
    17     8     9 1   
    18     9    20 2   
    19    10    11 ar  
    20    10    27 1   
    21    11    15 1   
    22    12    14 ar  
    23    12    28 1   
    24    13    14 ar  
    25    13    29 1   
    26    14    30 1   
    27    15    16 1   
    28    15    31 1   
    29    15    32 1   
    30    16    17 1   
    31    16    22 1   
    32    16    23 1   
    33    17    18 1   
    34    17    33 1   
    35    17    34 1   
    36    18    21 2   
    37    22    35 1   
    38    22    36 1   
    39    22    37 1   
    40    23    38 1   
    41    24    25 1   
    42    25    39 1   
    43    25    40 1   
    44    25    41 1   
@<TRIPOS>SUBSTRUCTURE
     1 P7K         1 TEMP              0 ****  ****    0 ROOT
