@<TRIPOS>MOLECULE
P7L
   48    51     1     0     0
SMALL
abcg2


@<TRIPOS>ATOM
      1 C10         -7.8780     2.5000   -31.3770 ca         1 P7L       0.364900
      2 C11         -5.7220     3.2620   -31.3970 ca         1 P7L       0.338900
      3 C12          0.3680     5.9470   -37.0270 cc         1 P7L      -0.234000
      4 C18          0.1890     4.9430   -36.1210 cd         1 P7L       0.091000
      5 S01         -1.1520     6.5780   -37.5130 ss         1 P7L       0.221000
      6 C19         -2.0240     5.4700   -36.5110 cc         1 P7L      -0.229300
      7 C09         -1.1690     4.6550   -35.8240 cd         1 P7L      -0.106000
      8 C23         -3.5210     5.5220   -36.4130 c3         1 P7L       0.177300
      9 N02         -3.9670     5.7850   -35.0400 n          1 P7L      -0.242400
     10 C16         -3.7330     7.1020   -34.5310 ca         1 P7L      -0.102000
     11 C06         -2.6480     7.3620   -33.7060 ca         1 P7L      -0.074000
     12 C08         -2.4170     8.6450   -33.2190 ca         1 P7L      -0.163000
     13 C17         -3.2750     9.6850   -33.5780 ca         1 P7L       0.144100
     14 O02         -3.1360    10.9690   -33.1600 os         1 P7L      -0.346100
     15 C21         -2.0730    11.2770   -32.2580 c3         1 P7L       0.147900
     16 C07         -4.3600     9.4270   -34.4250 ca         1 P7L      -0.163000
     17 C05         -4.5810     8.1470   -34.8970 ca         1 P7L      -0.074000
     18 C20         -4.4210     4.7550   -34.2760 c          1 P7L       0.604100
     19 O01         -4.4810     3.6030   -34.7000 o          1 P7L      -0.585100
     20 C22         -4.8570     5.0970   -32.8530 c3         1 P7L      -0.101100
     21 C15         -5.9590     4.2040   -32.3640 ca         1 P7L      -0.102300
     22 N01         -6.6590     2.4100   -30.9000 nb         1 P7L      -0.660000
     23 C14         -7.2790     4.3140   -32.8870 ca         1 P7L       0.005000
     24 C04         -7.6590     5.2430   -33.8850 ca         1 P7L      -0.107000
     25 C02         -8.9520     5.2800   -34.3450 ca         1 P7L      -0.090000
     26 C13         -8.2680     3.4300   -32.3720 ca         1 P7L      -0.098000
     27 C03         -9.5910     3.4870   -32.8650 ca         1 P7L      -0.078000
     28 C01         -9.9280     4.3970   -33.8350 ca         1 P7L      -0.114000
     29 H1          -8.6230     1.8170   -30.9770 h4         1 P7L       0.019100
     30 H2          -4.7260     3.1610   -30.9800 h4         1 P7L       0.017100
     31 H3           1.2910     6.3370   -37.4240 h4         1 P7L       0.164000
     32 H4          -1.4880     3.8960   -35.1240 ha         1 P7L       0.157000
     33 H5          -3.9150     6.3070   -37.0580 h1         1 P7L       0.075700
     34 H6          -3.9580     4.5760   -36.7240 h1         1 P7L       0.075700
     35 H7          -1.9830     6.5530   -33.4300 ha         1 P7L       0.124500
     36 H8          -1.5650     8.8210   -32.5790 ha         1 P7L       0.129000
     37 H9          -2.1640    12.3380   -32.0390 h1         1 P7L       0.044700
     38 H10         -2.1670    10.7060   -31.3310 h1         1 P7L       0.044700
     39 H11         -1.1020    11.0750   -32.7150 h1         1 P7L       0.044700
     40 H12         -5.0200    10.2400   -34.6970 ha         1 P7L       0.129000
     41 H13         -5.4260     7.9470   -35.5450 ha         1 P7L       0.124500
     42 H14         -3.9810     4.9870   -32.2090 hc         1 P7L       0.072700
     43 H15         -5.1490     6.1450   -32.7910 hc         1 P7L       0.072700
     44 H16         -6.9260     5.9290   -34.2880 ha         1 P7L       0.116000
     45 H17         -9.2300     5.9960   -35.1080 ha         1 P7L       0.113000
     46 H18        -10.3290     2.8030   -32.4650 ha         1 P7L       0.117000
     47 H19        -10.9400     4.4420   -34.2170 ha         1 P7L       0.116000
     48 CL01         1.5090     4.0740   -35.3890 cl         1 P7L      -0.183000
@<TRIPOS>BOND
     1     1    22 ar  
     2     1    26 ar  
     3     1    29 1   
     4     2    21 ar  
     5     2    22 ar  
     6     2    30 1   
     7     3     4 2   
     8     3     5 1   
     9     3    31 1   
    10     4     7 1   
    11     4    48 1   
    12     5     6 1   
    13     6     7 2   
    14     6     8 1   
    15     7    32 1   
    16     8     9 1   
    17     8    33 1   
    18     8    34 1   
    19     9    10 1   
    20     9    18 1   
    21    10    11 ar  
    22    10    17 ar  
    23    11    12 ar  
    24    11    35 1   
    25    12    13 ar  
    26    12    36 1   
    27    13    14 1   
    28    13    16 ar  
    29    14    15 1   
    30    15    37 1   
    31    15    38 1   
    32    15    39 1   
    33    16    17 ar  
    34    16    40 1   
    35    17    41 1   
    36    18    19 2   
    37    18    20 1   
    38    20    21 1   
    39    20    42 1   
    40    20    43 1   
    41    21    23 ar  
    42    23    24 ar  
    43    23    26 ar  
    44    24    25 ar  
    45    24    44 1   
    46    25    28 ar  
    47    25    45 1   
    48    26    27 ar  
    49    27    28 ar  
    50    27    46 1   
    51    28    47 1   
@<TRIPOS>SUBSTRUCTURE
     1 P7L         1 TEMP              0 ****  ****    0 ROOT
