@<TRIPOS>MOLECULE
P7L
   48    51     1     0     0
SMALL
No Charge or Current Charge


@<TRIPOS>ATOM
      1 C10         -8.0200     2.4950   -31.7270 ca         1 P7L       0.364900
      2 C11         -5.7580     2.8760   -31.4340 ca         1 P7L       0.338900
      3 C12          0.1800     5.9470   -37.3410 cc         1 P7L      -0.234000
      4 C18          0.1410     4.6570   -36.8840 cd         1 P7L       0.091000
      5 S01         -1.4070     6.6980   -37.2220 ss         1 P7L       0.221000
      6 C19         -2.0980     5.2210   -36.5540 cc         1 P7L      -0.229300
      7 C09         -1.1400     4.2440   -36.4380 cd         1 P7L      -0.106000
      8 C23         -3.5510     5.1460   -36.1650 c3         1 P7L       0.177300
      9 N02         -3.7370     5.5490   -34.7510 n          1 P7L      -0.242400
     10 C16         -3.6070     6.9560   -34.4460 ca         1 P7L      -0.102000
     11 C06         -2.8520     7.3830   -33.3340 ca         1 P7L      -0.074000
     12 C08         -2.8280     8.7370   -32.9570 ca         1 P7L      -0.163000
     13 C17         -3.6000     9.6810   -33.6650 ca         1 P7L       0.144100
     14 O02         -3.6220    11.0220   -33.3410 os         1 P7L      -0.346100
     15 C21         -2.8400    11.5630   -32.2600 c3         1 P7L       0.147900
     16 C07         -4.4010     9.2510   -34.7330 ca         1 P7L      -0.163000
     17 C05         -4.4230     7.8970   -35.1100 ca         1 P7L      -0.074000
     18 C20         -3.8660     4.5200   -33.7770 c          1 P7L       0.604100
     19 O01         -3.5420     3.3630   -34.0270 o          1 P7L      -0.585100
     20 C22         -4.4900     4.8470   -32.4050 c3         1 P7L      -0.101100
     21 C15         -5.7920     4.0640   -32.1960 ca         1 P7L      -0.102300
     22 N01         -6.8410     2.1020   -31.1960 nb         1 P7L      -0.660000
     23 C14         -7.0310     4.4670   -32.7540 ca         1 P7L       0.005000
     24 C04         -7.1780     5.6320   -33.5410 ca         1 P7L      -0.107000
     25 C02         -8.4320     5.9780   -34.0700 ca         1 P7L      -0.090000
     26 C13         -8.1630     3.6580   -32.5080 ca         1 P7L      -0.098000
     27 C03         -9.4190     4.0090   -33.0400 ca         1 P7L      -0.078000
     28 C01         -9.5520     5.1680   -33.8210 ca         1 P7L      -0.114000
     29 H1          -8.8760     1.8530   -31.5220 h4         1 P7L       0.019100
     30 H2          -4.8240     2.5270   -30.9960 h4         1 P7L       0.017100
     31 H3           1.0160     6.5100   -37.7320 h4         1 P7L       0.164000
     32 H4          -1.3400     3.2530   -36.0410 ha         1 P7L       0.157000
     33 H5          -4.1360     5.8040   -36.8200 h1         1 P7L       0.075700
     34 H6          -3.9260     4.1280   -36.3290 h1         1 P7L       0.075700
     35 H7          -2.2540     6.6680   -32.7720 ha         1 P7L       0.124500
     36 H8          -2.2130     9.0320   -32.1120 ha         1 P7L       0.129000
     37 H9          -3.0010    12.6450   -32.1790 h1         1 P7L       0.044700
     38 H10         -3.1260    11.1040   -31.3050 h1         1 P7L       0.044700
     39 H11         -1.7700    11.3910   -32.4280 h1         1 P7L       0.044700
     40 H12         -5.0200     9.9690   -35.2640 ha         1 P7L       0.129000
     41 H13         -5.0830     7.5870   -35.9160 ha         1 P7L       0.124500
     42 H14         -3.7610     4.5600   -31.6380 hc         1 P7L       0.072700
     43 H15         -4.6780     5.9160   -32.2810 hc         1 P7L       0.072700
     44 H16         -6.3350     6.2810   -33.7510 ha         1 P7L       0.116000
     45 H17         -8.5360     6.8760   -34.6750 ha         1 P7L       0.113000
     46 H18        -10.2910     3.3850   -32.8500 ha         1 P7L       0.117000
     47 H19        -10.5220     5.4390   -34.2320 ha         1 P7L       0.116000
     48 Cl01         1.5020     3.5870   -36.8300 cl         1 P7L      -0.183000
@<TRIPOS>BOND
     1     1    22 ar  
     2     1    26 ar  
     3     1    29 1   
     4     2    21 ar  
     5     2    22 ar  
     6     2    30 1   
     7     3     4 2   
     8     3     5 1   
     9     3    31 1   
    10     4     7 1   
    11     4    48 1   
    12     5     6 1   
    13     6     7 2   
    14     6     8 1   
    15     7    32 1   
    16     8     9 1   
    17     8    33 1   
    18     8    34 1   
    19     9    10 1   
    20     9    18 1   
    21    10    11 ar  
    22    10    17 ar  
    23    11    12 ar  
    24    11    35 1   
    25    12    13 ar  
    26    12    36 1   
    27    13    14 1   
    28    13    16 ar  
    29    14    15 1   
    30    15    37 1   
    31    15    38 1   
    32    15    39 1   
    33    16    17 ar  
    34    16    40 1   
    35    17    41 1   
    36    18    19 2   
    37    18    20 1   
    38    20    21 1   
    39    20    42 1   
    40    20    43 1   
    41    21    23 ar  
    42    23    24 ar  
    43    23    26 ar  
    44    24    25 ar  
    45    24    44 1   
    46    25    28 ar  
    47    25    45 1   
    48    26    27 ar  
    49    27    28 ar  
    50    27    46 1   
    51    28    47 1   
@<TRIPOS>SUBSTRUCTURE
     1 P7L         1 TEMP              0 ****  ****    0 ROOT
