@<TRIPOS>MOLECULE
P7M
   26    27     1     0     0
SMALL
bcc


@<TRIPOS>ATOM
      1 C1           4.1540     1.5360    -0.1700 ca         1 P7M      -0.127000
      2 C2           2.8920     1.0460     0.1190 ca         1 P7M       0.076400
      3 C3           2.6200    -0.3200     0.0590 ca         1 P7M      -0.156600
      4 C4           1.2860    -0.8730     0.4150 c          1 P7M       0.717700
      5 C5          -1.8690    -1.4600    -0.3700 cc         1 P7M      -0.349600
      6 C6          -2.6060    -1.2200    -1.4940 cd         1 P7M      -0.014000
      7 C7          -3.5910    -0.2320    -1.2810 cd         1 P7M      -0.145000
      8 O2           0.6640    -0.5500     1.3990 o          1 P7M      -0.530100
      9 N            0.8200    -1.8140    -0.4700 ns         1 P7M      -0.650300
     10 C            5.1600     0.6420    -0.5040 ca         1 P7M       0.054400
     11 O           -0.6170    -3.1670     1.1160 o          1 P7M      -0.593800
     12 C10          4.9240    -0.7210    -0.5680 ca         1 P7M      -0.128000
     13 C8          -3.5660     0.2330     0.0020 cc         1 P7M      -0.024000
     14 C9           3.6500    -1.1880    -0.2940 ca         1 P7M      -0.080000
     15 O1          -0.7020    -3.5350    -1.3790 o          1 P7M      -0.593800
     16 S           -0.6130    -2.6560    -0.2340 sy         1 P7M       1.372900
     17 S1          -2.3540    -0.4960     0.9660 ss         1 P7M       0.177200
     18 BR          -4.6650     1.5320     0.7330 br         1 P7M      -0.022100
     19 CL           6.7350     1.2510    -0.8530 cl         1 P7M      -0.083400
     20 CL1          1.6550     2.1870     0.4950 cl         1 P7M      -0.068400
     21 H1           4.3480     2.5990    -0.1370 ha         1 P7M       0.168000
     22 H2          -2.4630    -1.7330    -2.4340 ha         1 P7M       0.171000
     23 H3          -4.2820     0.1100    -2.0380 ha         1 P7M       0.168000
     24 H4           1.2490    -1.9240    -1.3820 hn         1 P7M       0.351500
     25 H5           5.7140    -1.4110    -0.8260 ha         1 P7M       0.159000
     26 H6           3.4660    -2.2530    -0.3350 ha         1 P7M       0.149000
@<TRIPOS>BOND
     1     1     2 ar  
     2     1    10 ar  
     3     1    21 1   
     4     2     3 ar  
     5     2    20 1   
     6     3     4 1   
     7     3    14 ar  
     8     4     8 2   
     9     4     9 1   
    10     5     6 2   
    11     5    16 1   
    12     5    17 1   
    13     6     7 1   
    14     6    22 1   
    15     7    13 2   
    16     7    23 1   
    17     9    16 1   
    18     9    24 1   
    19    10    12 ar  
    20    10    19 1   
    21    11    16 2   
    22    12    14 ar  
    23    12    25 1   
    24    13    17 1   
    25    13    18 1   
    26    14    26 1   
    27    15    16 2   
@<TRIPOS>SUBSTRUCTURE
     1 P7M         1 TEMP              0 ****  ****    0 ROOT
