@<TRIPOS>MOLECULE
P7M
   26    27     1     0     0
SMALL
No Charge or Current Charge


@<TRIPOS>ATOM
      1 C1           4.0040     1.5500    -0.0730 ca         1 P7M      -0.109000
      2 C2           2.8020     0.9990     0.4040 ca         1 P7M       0.168000
      3 C3           2.4910    -0.3650     0.1590 ca         1 P7M      -0.156600
      4 C4           1.2130    -0.9940     0.6680 c          1 P7M       0.650700
      5 C5          -1.7880    -1.5740    -0.2840 cc         1 P7M      -0.494500
      6 C6          -2.1410    -1.1390    -1.5400 cd         1 P7M       0.004000
      7 C7          -3.0550    -0.0520    -1.5070 cd         1 P7M      -0.127000
      8 O2           0.6790    -0.6550     1.7120 o          1 P7M      -0.530100
      9 N            0.7330    -2.0150    -0.0910 ns         1 P7M      -0.583300
     10 C            4.9100     0.7620    -0.7920 ca         1 P7M       0.146000
     11 O           -0.8150    -3.2120     1.5480 o          1 P7M      -0.523000
     12 C10          4.6200    -0.5850    -1.0440 ca         1 P7M      -0.110000
     13 C8          -3.3900     0.3280    -0.2320 cc         1 P7M      -0.168900
     14 C9           3.4210    -1.1470    -0.5740 ca         1 P7M      -0.062000
     15 O1          -0.7110    -3.8870    -0.9400 o          1 P7M      -0.523000
     16 S           -0.6760    -2.8830     0.1260 sy         1 P7M       1.231300
     17 S1          -2.5810    -0.6620     0.9830 ss         1 P7M       0.467000
     18 Br          -4.5640     1.7260     0.2410 br         1 P7M      -0.022100
     19 Cl           6.4110     1.4640    -1.3820 cl         1 P7M      -0.175000
     20 Cl1          1.7010     2.0960     1.2420 cl         1 P7M      -0.160000
     21 H1           4.2290     2.5960     0.1110 ha         1 P7M       0.150000
     22 H2          -1.7620    -1.5730    -2.4630 ha         1 P7M       0.153000
     23 H3          -3.4460     0.4280    -2.4000 ha         1 P7M       0.150000
     24 H4           1.1580    -2.2260    -0.9750 hn         1 P7M       0.351500
     25 H5           5.3280    -1.1960    -1.5980 ha         1 P7M       0.141000
     26 H6           3.2390    -2.2030    -0.7640 ha         1 P7M       0.131000
@<TRIPOS>BOND
     1     1     2 ar  
     2     1    10 ar  
     3     1    21 1   
     4     2     3 ar  
     5     2    20 1   
     6     3     4 1   
     7     3    14 ar  
     8     4     8 2   
     9     4     9 1   
    10     5     6 2   
    11     5    16 1   
    12     5    17 1   
    13     6     7 1   
    14     6    22 1   
    15     7    13 2   
    16     7    23 1   
    17     9    16 1   
    18     9    24 1   
    19    10    12 ar  
    20    10    19 1   
    21    11    16 2   
    22    12    14 ar  
    23    12    25 1   
    24    13    17 1   
    25    13    18 1   
    26    14    26 1   
    27    15    16 2   
@<TRIPOS>SUBSTRUCTURE
     1 P7M         1 TEMP              0 ****  ****    0 ROOT
