@<TRIPOS>MOLECULE
P7N
   58    61     1     0     0
SMALL
No Charge or Current Charge


@<TRIPOS>ATOM
      1 C2          22.6440    -3.7800    34.3230 ca         1 P7N       0.441900
      2 C8          20.9330    -7.6190    34.1080 c3         1 P7N       0.368300
      3 C12         24.6430    -6.8370    36.3950 c3         1 P7N       0.277100
      4 C13         25.5040    -8.0910    36.4420 ca         1 P7N      -0.111300
      5 C14         26.4970    -8.2860    35.4630 ca         1 P7N      -0.047000
      6 C15         27.3280    -9.4110    35.5680 ca         1 P7N      -0.153000
      7 C16         27.1510   -10.2920    36.6460 ca         1 P7N       0.361900
      8 C21         24.8590    -8.8570    39.8850 c3         1 P7N       0.194100
      9 C24         23.2500   -11.4580    38.2200 c3         1 P7N      -0.374100
     10 N25         23.1690    -2.4970    34.3540 nu         1 P7N      -0.923900
     11 C27         24.8070    -2.3860    36.1930 ca         1 P7N      -0.102000
     12 C30         25.9340    -0.1050    34.9940 ca         1 P7N      -0.091300
     13 C31         26.4690    -0.6100    36.1940 ca         1 P7N      -0.043000
     14 C33         28.1080     1.2590    36.4050 c          1 P7N       0.565000
     15 C34         27.3100     2.0310    35.3420 c6         1 P7N      -0.157400
     16 C35         26.5810     1.1120    34.3250 c6         1 P7N      -0.023100
     17 N1          21.4740    -3.8900    33.6840 nb         1 P7N      -0.282000
     18 N3          23.3370    -4.7670    34.8980 nb         1 P7N      -0.337000
     19 C4          22.8040    -5.9940    34.8380 ca         1 P7N       0.471900
     20 C5          21.5820    -6.2400    34.1920 ca         1 P7N      -0.433300
     21 C6          20.9420    -5.1220    33.6230 ca         1 P7N       0.226900
     22 N7          23.5290    -7.0040    35.4460 nu         1 P7N      -0.919100
     23 F9          20.3870    -7.9740    35.2910 f          1 P7N      -0.114667
     24 F10         19.9380    -7.6680    33.1940 f          1 P7N      -0.114667
     25 F11         21.8120    -8.5860    33.7630 f          1 P7N      -0.114667
     26 N17         26.1990   -10.1170    37.5870 nb         1 P7N      -0.703000
     27 C18         25.3830    -9.0520    37.4720 ca         1 P7N       0.550900
     28 N19         24.4340    -8.9530    38.4770 nh         1 P7N      -0.746200
     29 S20         22.9230    -9.7060    38.1750 s6         1 P7N       1.237100
     30 O22         22.0410    -9.3660    39.2950 o          1 P7N      -0.542000
     31 O23         22.5440    -9.3480    36.8050 o          1 P7N      -0.542000
     32 C26         24.2700    -1.9000    34.9830 ca         1 P7N       0.295000
     33 C28         25.9080    -1.7480    36.7930 ca         1 P7N      -0.129000
     34 C29         24.8350    -0.7530    34.3960 ca         1 P7N      -0.130000
     35 N32         27.5710     0.0450    36.7820 ns         1 P7N      -0.147000
     36 H1          25.2900    -6.0060    36.0820 h1         1 P7N       0.070700
     37 H2          24.2630    -6.5850    37.3950 h1         1 P7N       0.070700
     38 H3          26.6250    -7.5750    34.6480 ha         1 P7N       0.135000
     39 H4          28.1090    -9.5970    34.8360 ha         1 P7N       0.135000
     40 H5          27.7910   -11.1660    36.7580 h4         1 P7N       0.029100
     41 H6          24.1660    -8.2250    40.4570 h1         1 P7N       0.058367
     42 H7          24.9000    -9.8500    40.3520 h1         1 P7N       0.058367
     43 H8          25.8550    -8.4020    39.9560 h1         1 P7N       0.058367
     44 H9          23.6790   -11.6880    39.1990 h1         1 P7N       0.106367
     45 H10         22.2950   -11.9710    38.0710 h1         1 P7N       0.106367
     46 H11         23.9520   -11.6850    37.4120 h1         1 P7N       0.106367
     47 H12         22.6820    -1.8780    33.7070 hn         1 P7N       0.514000
     48 H13         24.3670    -3.2470    36.6840 ha         1 P7N       0.150000
     49 H14         27.9340     2.8010    34.8700 hc         1 P7N       0.077200
     50 H15         26.5160     2.5440    35.8990 hc         1 P7N       0.077200
     51 H16         27.3030     0.7590    33.5750 hc         1 P7N       0.059700
     52 H17         25.8280     1.6940    33.7750 hc         1 P7N       0.059700
     53 H18         19.9850    -5.2020    33.1100 h4         1 P7N       0.036100
     54 H19         23.0100    -7.8800    35.5500 hn         1 P7N       0.541000
     55 H20         26.3140    -2.1340    37.7260 ha         1 P7N       0.118000
     56 H21         24.4300    -0.3700    33.4630 ha         1 P7N       0.116000
     57 H22         28.0580    -0.4580    37.5130 hn         1 P7N       0.158000
     58 O36         29.1600     1.6840    36.8670 o          1 P7N      -0.551000
@<TRIPOS>BOND
     1     1    10 1   
     2     1    17 ar  
     3     1    18 ar  
     4     2    20 1   
     5     2    23 1   
     6     2    24 1   
     7     2    25 1   
     8     3     4 1   
     9     3    22 1   
    10     3    36 1   
    11     3    37 1   
    12     4     5 ar  
    13     4    27 ar  
    14     5     6 ar  
    15     5    38 1   
    16     6     7 ar  
    17     6    39 1   
    18     7    26 ar  
    19     7    40 1   
    20     8    28 1   
    21     8    41 1   
    22     8    42 1   
    23     8    43 1   
    24     9    29 1   
    25     9    44 1   
    26     9    45 1   
    27     9    46 1   
    28    10    32 1   
    29    10    47 1   
    30    11    32 ar  
    31    11    33 ar  
    32    11    48 1   
    33    12    13 ar  
    34    12    16 1   
    35    12    34 ar  
    36    13    33 ar  
    37    13    35 1   
    38    14    15 1   
    39    14    35 1   
    40    14    58 2   
    41    15    16 1   
    42    15    49 1   
    43    15    50 1   
    44    16    51 1   
    45    16    52 1   
    46    17    21 ar  
    47    18    19 ar  
    48    19    20 ar  
    49    19    22 1   
    50    20    21 ar  
    51    21    53 1   
    52    22    54 1   
    53    26    27 ar  
    54    27    28 1   
    55    28    29 1   
    56    29    30 2   
    57    29    31 2   
    58    32    34 ar  
    59    33    55 1   
    60    34    56 1   
    61    35    57 1   
@<TRIPOS>SUBSTRUCTURE
     1 P7N         1 TEMP              0 ****  ****    0 ROOT
