@<TRIPOS>MOLECULE
P7N
   58    61     1     0     0
SMALL
abcg2


@<TRIPOS>ATOM
      1 C2          22.7650    -3.8660    34.1690 ca         1 P7N       0.441900
      2 C8          21.0630    -7.6440    33.7640 c3         1 P7N       0.368300
      3 C12         24.7030    -6.8800    36.1290 c3         1 P7N       0.277100
      4 C13         25.4750    -8.1660    36.2480 ca         1 P7N      -0.111300
      5 C14         26.3400    -8.5700    35.2330 ca         1 P7N      -0.047000
      6 C15         27.0580    -9.7470    35.3660 ca         1 P7N      -0.153000
      7 C16         26.8950   -10.4920    36.5280 ca         1 P7N       0.361900
      8 C21         25.0990    -8.3910    39.7380 c3         1 P7N       0.194100
      9 C24         23.0970   -10.9260    39.1060 c3         1 P7N      -0.374100
     10 N25         23.2780    -2.6080    34.2280 nu         1 P7N      -0.923900
     11 C27         25.2320    -2.7950    35.7470 ca         1 P7N      -0.102000
     12 C30         25.8290    -0.1260    35.1410 ca         1 P7N      -0.091300
     13 C31         26.6280    -0.8440    36.0390 ca         1 P7N      -0.043000
     14 C33         27.9360     1.1320    36.6780 c          1 P7N       0.565000
     15 C34         26.8570     1.9680    36.0260 c6         1 P7N      -0.157400
     16 C35         26.2330     1.2840    34.8100 c6         1 P7N      -0.023100
     17 N1          21.6300    -3.9630    33.4410 nb         1 P7N      -0.282000
     18 N3          23.3770    -4.8650    34.8020 nb         1 P7N      -0.337000
     19 C4          22.8480    -6.0920    34.7140 ca         1 P7N       0.471900
     20 C5          21.6690    -6.3030    33.9450 ca         1 P7N      -0.433300
     21 C6          21.1170    -5.1840    33.3450 ca         1 P7N       0.226900
     22 N7          23.4840    -7.0890    35.3530 nu         1 P7N      -0.919100
     23 F9          20.6070    -8.1820    34.9310 f          1 P7N      -0.114667
     24 F10         20.0150    -7.6310    32.9180 f          1 P7N      -0.114667
     25 F11         21.9430    -8.5600    33.2700 f          1 P7N      -0.114667
     26 N17         26.0650   -10.1280    37.5060 nb         1 P7N      -0.703000
     27 C18         25.3710    -9.0040    37.3580 ca         1 P7N       0.550900
     28 N19         24.4820    -8.6440    38.4260 nh         1 P7N      -0.746200
     29 S20         22.9710    -9.3070    38.3940 s6         1 P7N       1.237100
     30 O22         22.1260    -8.5030    39.2440 o          1 P7N      -0.542000
     31 O23         22.6240    -9.4540    36.9960 o          1 P7N      -0.542000
     32 C26         24.4180    -2.0880    34.8580 ca         1 P7N       0.295000
     33 C28         26.3250    -2.1670    36.3320 ca         1 P7N      -0.129000
     34 C29         24.7340    -0.7520    34.5720 ca         1 P7N      -0.130000
     35 N32         27.7410    -0.2120    36.6240 ns         1 P7N      -0.147000
     36 H1          25.3090    -6.1440    35.6060 h1         1 P7N       0.070700
     37 H2          24.4680    -6.4840    37.1180 h1         1 P7N       0.070700
     38 H3          26.4470    -7.9540    34.3480 ha         1 P7N       0.135000
     39 H4          27.7370   -10.0810    34.5930 ha         1 P7N       0.135000
     40 H5          27.4460   -11.4140    36.6780 h4         1 P7N       0.029100
     41 H6          24.3320    -8.0560    40.4310 h1         1 P7N       0.058367
     42 H7          25.5920    -9.2820    40.1310 h1         1 P7N       0.058367
     43 H8          25.8330    -7.5960    39.6140 h1         1 P7N       0.058367
     44 H9          23.4310   -10.8270    40.1370 h1         1 P7N       0.106367
     45 H10         22.1040   -11.3720    39.0680 h1         1 P7N       0.106367
     46 H11         23.8090   -11.5020    38.5190 h1         1 P7N       0.106367
     47 H12         22.7400    -1.9440    33.6900 hn         1 P7N       0.514000
     48 H13         25.0080    -3.8200    35.9840 ha         1 P7N       0.150000
     49 H14         27.2880     2.9340    35.7700 hc         1 P7N       0.077200
     50 H15         26.0920     2.1410    36.7920 hc         1 P7N       0.077200
     51 H16         26.9660     1.2610    33.9960 hc         1 P7N       0.059700
     52 H17         25.3770     1.8550    34.4510 hc         1 P7N       0.059700
     53 H18         20.2150    -5.2810    32.7530 h4         1 P7N       0.036100
     54 H19         23.0060    -7.9650    35.5110 hn         1 P7N       0.541000
     55 H20         26.9470    -2.7170    37.0280 ha         1 P7N       0.118000
     56 H21         24.1120    -0.1960    33.8800 ha         1 P7N       0.116000
     57 H22         28.4070    -0.7850    37.1260 hn         1 P7N       0.158000
     58 O36         28.9090     1.6180    37.2490 o          1 P7N      -0.551000
@<TRIPOS>BOND
     1     1    10 1   
     2     1    17 ar  
     3     1    18 ar  
     4     2    20 1   
     5     2    23 1   
     6     2    24 1   
     7     2    25 1   
     8     3     4 1   
     9     3    22 1   
    10     3    36 1   
    11     3    37 1   
    12     4     5 ar  
    13     4    27 ar  
    14     5     6 ar  
    15     5    38 1   
    16     6     7 ar  
    17     6    39 1   
    18     7    26 ar  
    19     7    40 1   
    20     8    28 1   
    21     8    41 1   
    22     8    42 1   
    23     8    43 1   
    24     9    29 1   
    25     9    44 1   
    26     9    45 1   
    27     9    46 1   
    28    10    32 1   
    29    10    47 1   
    30    11    32 ar  
    31    11    33 ar  
    32    11    48 1   
    33    12    13 ar  
    34    12    16 1   
    35    12    34 ar  
    36    13    33 ar  
    37    13    35 1   
    38    14    15 1   
    39    14    35 1   
    40    14    58 2   
    41    15    16 1   
    42    15    49 1   
    43    15    50 1   
    44    16    51 1   
    45    16    52 1   
    46    17    21 ar  
    47    18    19 ar  
    48    19    20 ar  
    49    19    22 1   
    50    20    21 ar  
    51    21    53 1   
    52    22    54 1   
    53    26    27 ar  
    54    27    28 1   
    55    28    29 1   
    56    29    30 2   
    57    29    31 2   
    58    32    34 ar  
    59    33    55 1   
    60    34    56 1   
    61    35    57 1   
@<TRIPOS>SUBSTRUCTURE
     1 P7N         1 TEMP              0 ****  ****    0 ROOT
