@<TRIPOS>MOLECULE
P7Q
   42    45     1     0     0
SMALL
abcg2


@<TRIPOS>ATOM
      1 OAU        -10.4130    14.5310    30.0940 o          1 P7Q      -0.478100
      2 CAJ         -9.4210    13.8410    30.1130 c          1 P7Q       0.588300
      3 CAI         -8.9360    13.1370    28.8940 ca         1 P7Q      -0.015600
      4 CAN         -9.1650    13.6320    27.6110 ca         1 P7Q      -0.191600
      5 CAR         -9.3930    15.0790    27.3530 c          1 P7Q       0.601700
      6 OAV         -9.0220    15.9280    28.1340 o          1 P7Q      -0.508100
      7 CAQ         -9.9980    15.4210    26.0210 c6         1 P7Q      -0.210400
      8 CAP         -9.2470    14.7130    24.8830 c6         1 P7Q       0.199000
      9 CAY         -7.7940    15.1650    24.8270 c3         1 P7Q      -0.086100
     10 OAX         -9.8100    15.0530    23.6360 oh         1 P7Q      -0.648000
     11 CAO         -9.3410    13.2050    25.1160 c6         1 P7Q      -0.077100
     12 CAM         -8.9890    12.7740    26.5110 ca         1 P7Q       0.024700
     13 CAL         -8.5330    11.4840    26.7110 ca         1 P7Q      -0.181000
     14 CAK         -8.2290    11.0100    27.9840 ca         1 P7Q       0.241100
     15 OAW         -7.7760     9.7740    28.0950 oh         1 P7Q      -0.536100
     16 CAH         -8.4270    11.8550    29.1010 ca         1 P7Q      -0.282600
     17 CAG         -8.0170    11.3920    30.4410 c          1 P7Q       0.623300
     18 OAT         -7.6500    10.2300    30.5890 o          1 P7Q      -0.550100
     19 CAE         -8.0040    12.3660    31.5430 ca         1 P7Q      -0.181600
     20 CAF         -8.6960    13.5740    31.3770 ca         1 P7Q      -0.085600
     21 CAA         -8.7600    14.5180    32.3870 ca         1 P7Q      -0.108000
     22 CAB         -8.0890    14.2720    33.5750 ca         1 P7Q      -0.046000
     23 CAC         -7.3860    13.0970    33.7670 ca         1 P7Q      -0.205000
     24 CAD         -7.3410    12.1230    32.7650 ca         1 P7Q       0.203100
     25 OAS         -6.6850    10.9760    32.9080 os         1 P7Q      -0.310100
     26 CAZ         -5.9670    10.7300    34.1070 c3         1 P7Q       0.145900
     27 H1          -9.9820    16.5030    25.8790 hc         1 P7Q       0.077700
     28 H2         -11.0440    15.0910    26.0210 hc         1 P7Q       0.077700
     29 H3          -7.2490    14.8950    25.7330 hc         1 P7Q       0.050700
     30 H4          -7.2810    14.6950    23.9860 hc         1 P7Q       0.050700
     31 H5          -7.7260    16.2470    24.7090 hc         1 P7Q       0.050700
     32 H6         -10.7360    14.7880    23.6290 ho         1 P7Q       0.443000
     33 H7         -10.3740    12.8820    24.9370 hc         1 P7Q       0.066200
     34 H8          -8.7200    12.6710    24.3930 hc         1 P7Q       0.066200
     35 H9          -8.3920    10.8230    25.8640 ha         1 P7Q       0.138000
     36 H10         -7.6400     9.5900    29.0540 ho         1 P7Q       0.523000
     37 H11         -9.3080    15.4380    32.2450 ha         1 P7Q       0.143000
     38 H12         -8.1110    15.0070    34.3690 ha         1 P7Q       0.121000
     39 H13         -6.8780    12.9450    34.7090 ha         1 P7Q       0.124000
     40 H14         -5.5040     9.7550    33.9830 h1         1 P7Q       0.047700
     41 H15         -5.1870    11.4760    34.2720 h1         1 P7Q       0.047700
     42 H16         -6.6270    10.7010    34.9760 h1         1 P7Q       0.047700
@<TRIPOS>BOND
     1     1     2 2   
     2     2     3 1   
     3     2    20 1   
     4     3     4 ar  
     5     3    16 ar  
     6     4     5 1   
     7     4    12 ar  
     8     5     6 2   
     9     5     7 1   
    10     7     8 1   
    11     7    27 1   
    12     7    28 1   
    13     8     9 1   
    14     8    10 1   
    15     8    11 1   
    16     9    29 1   
    17     9    30 1   
    18     9    31 1   
    19    10    32 1   
    20    11    12 1   
    21    11    33 1   
    22    11    34 1   
    23    12    13 ar  
    24    13    14 ar  
    25    13    35 1   
    26    14    15 1   
    27    14    16 ar  
    28    15    36 1   
    29    16    17 1   
    30    17    18 2   
    31    17    19 1   
    32    19    20 ar  
    33    19    24 ar  
    34    20    21 ar  
    35    21    22 ar  
    36    21    37 1   
    37    22    23 ar  
    38    22    38 1   
    39    23    24 ar  
    40    23    39 1   
    41    24    25 1   
    42    25    26 1   
    43    26    40 1   
    44    26    41 1   
    45    26    42 1   
@<TRIPOS>SUBSTRUCTURE
     1 P7Q         1 TEMP              0 ****  ****    0 ROOT
