@<TRIPOS>MOLECULE
P7Q
   42    45     1     0     0
SMALL
No Charge or Current Charge


@<TRIPOS>ATOM
      1 OAU        -10.2930    14.7350    30.1120 o          1 P7Q      -0.478100
      2 CAJ         -9.3450    13.9550    30.1280 c          1 P7Q       0.588300
      3 CAI         -8.9280    13.1530    28.9050 ca         1 P7Q      -0.015600
      4 CAN         -9.1100    13.6420    27.5720 ca         1 P7Q      -0.191600
      5 CAR         -9.4340    15.0910    27.2730 c          1 P7Q       0.601700
      6 OAV         -9.0690    16.0150    27.9870 o          1 P7Q      -0.508100
      7 CAQ        -10.1050    15.3760    25.9340 c6         1 P7Q      -0.210400
      8 CAP         -9.2970    14.7230    24.7980 c6         1 P7Q       0.199000
      9 CAY         -7.8760    15.3460    24.6850 c3         1 P7Q      -0.086100
     10 OAX         -9.9640    14.9800    23.5630 oh         1 P7Q      -0.648000
     11 CAO         -9.2130    13.1930    25.0280 c6         1 P7Q      -0.077100
     12 CAM         -8.9120    12.7710    26.4750 ca         1 P7Q       0.024700
     13 CAL         -8.4670    11.4630    26.6970 ca         1 P7Q      -0.181000
     14 CAK         -8.1900    11.0100    27.9860 ca         1 P7Q       0.241100
     15 OAW         -7.7270     9.7380    28.1290 oh         1 P7Q      -0.536100
     16 CAH         -8.4070    11.8440    29.1020 ca         1 P7Q      -0.282600
     17 CAG         -8.0900    11.3570    30.4990 c          1 P7Q       0.623300
     18 OAT         -7.9310    10.1570    30.7000 o          1 P7Q      -0.550100
     19 CAE         -8.0160    12.3810    31.6090 ca         1 P7Q      -0.181600
     20 CAF         -8.6420    13.6390    31.4210 ca         1 P7Q      -0.085600
     21 CAA         -8.6340    14.5930    32.4600 ca         1 P7Q      -0.108000
     22 CAB         -7.9900    14.3180    33.6720 ca         1 P7Q      -0.046000
     23 CAC         -7.3480    13.0870    33.8580 ca         1 P7Q      -0.205000
     24 CAD         -7.3540    12.1110    32.8360 ca         1 P7Q       0.203100
     25 OAS         -6.7010    10.9040    33.0080 os         1 P7Q      -0.310100
     26 CAZ         -6.0080    10.5540    34.2190 c3         1 P7Q       0.145900
     27 H1         -10.2410    16.4560    25.7920 hc         1 P7Q       0.077700
     28 H2         -11.0790    14.8690    25.9570 hc         1 P7Q       0.077700
     29 H3          -7.2650    15.1400    25.5720 hc         1 P7Q       0.050700
     30 H4          -7.3340    14.9450    23.8190 hc         1 P7Q       0.050700
     31 H5          -7.9270    16.4350    24.5630 hc         1 P7Q       0.050700
     32 H6         -10.8890    14.6690    23.6660 ho         1 P7Q       0.443000
     33 H7         -10.1670    12.7290    24.7420 hc         1 P7Q       0.066200
     34 H8          -8.4650    12.7600    24.3500 hc         1 P7Q       0.066200
     35 H9          -8.3170    10.7910    25.8560 ha         1 P7Q       0.138000
     36 H10         -7.6960     9.5650    29.1040 ho         1 P7Q       0.523000
     37 H11         -9.1230    15.5560    32.3270 ha         1 P7Q       0.143000
     38 H12         -7.9840    15.0620    34.4660 ha         1 P7Q       0.121000
     39 H13         -6.8500    12.9100    34.8070 ha         1 P7Q       0.124000
     40 H14         -5.5720     9.5520    34.1300 h1         1 P7Q       0.047700
     41 H15         -5.1930    11.2610    34.4210 h1         1 P7Q       0.047700
     42 H16         -6.6940    10.5500    35.0750 h1         1 P7Q       0.047700
@<TRIPOS>BOND
     1     1     2 2   
     2     2     3 1   
     3     2    20 1   
     4     3     4 ar  
     5     3    16 ar  
     6     4     5 1   
     7     4    12 ar  
     8     5     6 2   
     9     5     7 1   
    10     7     8 1   
    11     7    27 1   
    12     7    28 1   
    13     8     9 1   
    14     8    10 1   
    15     8    11 1   
    16     9    29 1   
    17     9    30 1   
    18     9    31 1   
    19    10    32 1   
    20    11    12 1   
    21    11    33 1   
    22    11    34 1   
    23    12    13 ar  
    24    13    14 ar  
    25    13    35 1   
    26    14    15 1   
    27    14    16 ar  
    28    15    36 1   
    29    16    17 1   
    30    17    18 2   
    31    17    19 1   
    32    19    20 ar  
    33    19    24 ar  
    34    20    21 ar  
    35    21    22 ar  
    36    21    37 1   
    37    22    23 ar  
    38    22    38 1   
    39    23    24 ar  
    40    23    39 1   
    41    24    25 1   
    42    25    26 1   
    43    26    40 1   
    44    26    41 1   
    45    26    42 1   
@<TRIPOS>SUBSTRUCTURE
     1 P7Q         1 TEMP              0 ****  ****    0 ROOT
