@<TRIPOS>MOLECULE
P7R
   40    43     1     0     0
SMALL
abcg2


@<TRIPOS>ATOM
      1 N1           3.7680     1.4370    19.1860 ns         1 P7R      -0.497600
      2 N3           7.5480    -0.4200    21.2790 ns         1 P7R      -0.169000
      3 C4           7.4760    -0.1570    18.8530 ca         1 P7R       0.335900
      4 C5           6.8680    -0.0090    20.1020 ca         1 P7R      -0.108000
      5 C6           8.1920     0.4500    22.0950 c          1 P7R       0.599100
      6 C7           8.9700    -0.1960    23.2370 c6         1 P7R      -0.081400
      7 C8           8.6300     0.4840    24.5650 c6         1 P7R      -0.107400
      8 C10         11.3560     0.2280    23.9890 ca         1 P7R       0.151100
      9 C13         12.3380    -0.2820    21.4540 ca         1 P7R       0.093000
     10 C15         10.4640    -0.1170    22.9660 ca         1 P7R      -0.145300
     11 CL          12.9520    -0.6200    19.8450 cl         1 P7R      -0.208000
     12 C12         13.2220     0.0830    22.4620 ca         1 P7R      -0.062000
     13 C11         12.7230     0.3340    23.7290 ca         1 P7R      -0.131000
     14 C14         10.9790    -0.3790    21.6960 ca         1 P7R      -0.064000
     15 O2          10.9600     0.4880    25.2660 os         1 P7R      -0.343100
     16 C9           9.6300     0.0680    25.6200 c6         1 P7R       0.161600
     17 O1           8.1550     1.6630    21.9280 o          1 P7R      -0.564100
     18 N2           6.9200     0.1930    17.6920 nb         1 P7R      -0.652000
     19 C3           5.6940     0.7360    17.7020 ca         1 P7R       0.342900
     20 C16          5.5970     0.5480    20.1140 ca         1 P7R       0.059600
     21 N            4.6900     0.8380    21.1070 n          1 P7R      -0.290000
     22 C            4.8330     0.6120    22.5360 c3         1 P7R       0.107300
     23 C2           5.0160     0.9240    18.8880 ca         1 P7R      -0.049400
     24 C1           3.5370     1.3920    20.5440 c          1 P7R       0.593000
     25 O            2.5360     1.7540    21.1420 o          1 P7R      -0.551000
     26 H1           3.0920     1.7890    18.5270 hn         1 P7R       0.475000
     27 H2           7.6630    -1.4100    21.4410 hn         1 P7R       0.159000
     28 H3           8.4720    -0.5850    18.8160 h4         1 P7R       0.027100
     29 H4           8.6850    -1.2500    23.3020 hc         1 P7R       0.058700
     30 H5           8.6610     1.5680    24.4420 hc         1 P7R       0.072700
     31 H6           7.6230     0.2100    24.8830 hc         1 P7R       0.072700
     32 H7          14.2820     0.1620    22.2630 ha         1 P7R       0.135000
     33 H8          13.3880     0.6110    24.5370 ha         1 P7R       0.136000
     34 H9          10.3130    -0.6540    20.8890 ha         1 P7R       0.124000
     35 H10          9.4260     0.5390    26.5790 h1         1 P7R       0.060200
     36 H11          9.6340    -1.0190    25.7510 h1         1 P7R       0.060200
     37 H12          5.2580     1.0180    16.7510 h4         1 P7R       0.031100
     38 H13          3.8940     0.8950    23.0040 h1         1 P7R       0.056033
     39 H14          5.0370    -0.4380    22.7350 h1         1 P7R       0.056033
     40 H15          5.6360     1.2250    22.9400 h1         1 P7R       0.056033
@<TRIPOS>BOND
     1     1    23 1   
     2     1    24 1   
     3     1    26 1   
     4     2     4 1   
     5     2     5 1   
     6     2    27 1   
     7     3     4 ar  
     8     3    18 ar  
     9     3    28 1   
    10     4    20 ar  
    11     5     6 1   
    12     5    17 2   
    13     6     7 1   
    14     6    10 1   
    15     6    29 1   
    16     7    16 1   
    17     7    30 1   
    18     7    31 1   
    19     8    10 ar  
    20     8    13 ar  
    21     8    15 1   
    22     9    11 1   
    23     9    12 ar  
    24     9    14 ar  
    25    10    14 ar  
    26    12    13 ar  
    27    12    32 1   
    28    13    33 1   
    29    14    34 1   
    30    15    16 1   
    31    16    35 1   
    32    16    36 1   
    33    18    19 ar  
    34    19    23 ar  
    35    19    37 1   
    36    20    21 1   
    37    20    23 ar  
    38    21    22 1   
    39    21    24 1   
    40    22    38 1   
    41    22    39 1   
    42    22    40 1   
    43    24    25 2   
@<TRIPOS>SUBSTRUCTURE
     1 P7R         1 TEMP              0 ****  ****    0 ROOT
