@<TRIPOS>MOLECULE
P7R
   40    43     1     0     0
SMALL
No Charge or Current Charge


@<TRIPOS>ATOM
      1 N1           3.2420     0.6440    19.3490 ns         1 P7R      -0.497600
      2 N3           7.4960     0.5610    21.2510 ns         1 P7R      -0.169000
      3 C4           7.2450     1.3810    18.8860 ca         1 P7R       0.335900
      4 C5           6.7170     0.8150    20.0830 ca         1 P7R      -0.108000
      5 C6           8.8090     0.8770    21.5770 c          1 P7R       0.599100
      6 C7           9.2700     0.3560    22.9640 c6         1 P7R      -0.081400
      7 C8           8.9520     1.3980    24.0690 c6         1 P7R      -0.107400
      8 C10         11.5780     0.2320    24.0880 ca         1 P7R       0.151100
      9 C13         12.6110    -1.3070    21.9760 ca         1 P7R       0.093000
     10 C15         10.7400    -0.1110    22.9980 ca         1 P7R      -0.145300
     11 Cl          13.2550    -2.2810    20.6610 cl         1 P7R      -0.208000
     12 C12         13.4440    -0.9340    23.0430 ca         1 P7R      -0.062000
     13 C11         12.9250    -0.1650    24.0990 ca         1 P7R      -0.131000
     14 C14         11.2660    -0.9020    21.9530 ca         1 P7R      -0.064000
     15 O2          11.1010     0.9590    25.1580 os         1 P7R      -0.343100
     16 C9           9.6770     1.0300    25.3760 c6         1 P7R       0.161600
     17 O1           9.5680     1.4770    20.8250 o          1 P7R      -0.564100
     18 N2           6.4920     1.6860    17.7890 nb         1 P7R      -0.652000
     19 C3           5.1560     1.4550    17.8390 ca         1 P7R       0.342900
     20 C16          5.3500     0.4850    20.0580 ca         1 P7R       0.059600
     21 N            4.4320     0.0920    21.0900 n          1 P7R      -0.290000
     22 C            4.7990    -0.6240    22.3260 c3         1 P7R       0.107300
     23 C2           4.5790     0.8750    18.9790 ca         1 P7R      -0.049400
     24 C1           3.1080     0.1660    20.6200 c          1 P7R       0.593000
     25 O            2.0750    -0.1450    21.1880 o          1 P7R      -0.551000
     26 H1           2.4380     0.8070    18.7480 hn         1 P7R       0.475000
     27 H2           7.0000     0.0620    21.9770 hn         1 P7R       0.159000
     28 H3           8.3000     1.6210    18.7880 h4         1 P7R       0.027100
     29 H4           8.6240    -0.5000    23.2070 hc         1 P7R       0.058700
     30 H5           9.2840     2.3970    23.7510 hc         1 P7R       0.072700
     31 H6           7.8690     1.4660    24.2410 hc         1 P7R       0.072700
     32 H7          14.4860    -1.2460    23.0550 ha         1 P7R       0.135000
     33 H8          13.5630     0.1140    24.9330 ha         1 P7R       0.136000
     34 H9          10.6380    -1.2000    21.1170 ha         1 P7R       0.124000
     35 H10          9.4700     1.7780    26.1550 h1         1 P7R       0.060200
     36 H11          9.3240     0.0530    25.7370 h1         1 P7R       0.060200
     37 H12          4.5570     1.7620    16.9830 h4         1 P7R       0.031100
     38 H13          3.9150    -1.0950    22.7730 h1         1 P7R       0.056033
     39 H14          5.5350    -1.4050    22.0970 h1         1 P7R       0.056033
     40 H15          5.2270     0.0820    23.0480 h1         1 P7R       0.056033
@<TRIPOS>BOND
     1     1    23 1   
     2     1    24 1   
     3     1    26 1   
     4     2     4 1   
     5     2     5 1   
     6     2    27 1   
     7     3     4 ar  
     8     3    18 ar  
     9     3    28 1   
    10     4    20 ar  
    11     5     6 1   
    12     5    17 2   
    13     6     7 1   
    14     6    10 1   
    15     6    29 1   
    16     7    16 1   
    17     7    30 1   
    18     7    31 1   
    19     8    10 ar  
    20     8    13 ar  
    21     8    15 1   
    22     9    11 1   
    23     9    12 ar  
    24     9    14 ar  
    25    10    14 ar  
    26    12    13 ar  
    27    12    32 1   
    28    13    33 1   
    29    14    34 1   
    30    15    16 1   
    31    16    35 1   
    32    16    36 1   
    33    18    19 ar  
    34    19    23 ar  
    35    19    37 1   
    36    20    21 1   
    37    20    23 ar  
    38    21    22 1   
    39    21    24 1   
    40    22    38 1   
    41    22    39 1   
    42    22    40 1   
    43    24    25 2   
@<TRIPOS>SUBSTRUCTURE
     1 P7R         1 TEMP              0 ****  ****    0 ROOT
