@<TRIPOS>MOLECULE
P7S
   61    62     1     0     0
SMALL
bcc


@<TRIPOS>ATOM
      1 C10         -0.4280   -29.0790    10.2950 c5         1 P7S      -0.096400
      2 C13         -1.0720   -29.7990     6.7270 c          1 P7S       0.670100
      3 C17         -3.2420   -30.0880     3.8690 c3         1 P7S      -0.220400
      4 C21         -2.3480   -27.7760     4.3940 c          1 P7S       0.576900
      5 C26         -1.3270   -36.2200    10.4830 ca         1 P7S      -0.197600
      6 C28         -3.2630   -37.4620     9.7690 ca         1 P7S      -0.063600
      7 C02          1.6760   -33.4600     8.1150 c3         1 P7S      -0.046000
      8 C03          2.5000   -32.1750     8.0200 c3         1 P7S      -0.090100
      9 C04          1.2980   -33.9210     6.7070 c3         1 P7S      -0.090100
     10 C05          0.4300   -33.2100     9.0170 c3         1 P7S       0.047700
     11 C06         -0.5240   -32.1720     8.4280 c          1 P7S       0.665100
     12 C09          0.3420   -30.3420     9.9400 c5         1 P7S       0.108000
     13 C11         -0.9380   -28.6020     8.9410 c5         1 P7S      -0.086400
     14 C12         -1.3110   -29.9080     8.2270 c5         1 P7S       0.020700
     15 C16         -2.1890   -29.2690     4.5870 c3         1 P7S       0.010700
     16 C18         -3.1500   -29.9850     2.3310 c          1 P7S       0.942600
     17 C27         -2.4410   -36.3580     9.6600 ca         1 P7S      -0.043000
     18 C29         -3.0200   -38.4850    10.7000 ca         1 P7S       0.199600
     19 C30         -1.8980   -38.3210    11.5300 ca         1 P7S      -0.222000
     20 C31         -1.0840   -37.2150    11.4300 ca         1 P7S      -0.030000
     21 N08         -0.4390   -30.8970     8.8370 n          1 P7S      -0.461800
     22 N15         -2.1750   -29.5000     6.0180 ns         1 P7S      -0.557900
     23 N23         -0.3400   -34.4100     9.2440 ns         1 P7S      -0.556900
     24 N32         -3.7950   -39.6000    10.7750 nv         1 P7S      -0.836200
     25 O07         -1.3510   -32.5100     7.5870 o          1 P7S      -0.601100
     26 O14          0.0410   -29.9090     6.2400 o          1 P7S      -0.607100
     27 O19         -4.1700   -30.3090     1.6970 o          1 P7S      -0.836300
     28 O20         -2.0530   -29.6200     1.8610 o          1 P7S      -0.836300
     29 O25          0.2510   -34.7210    11.4060 o          1 P7S      -0.626100
     30 CL33        -4.6470   -37.5910     8.7280 cl         1 P7S      -0.114400
     31 H1           0.1980   -28.3430    10.7970 hc         1 P7S       0.050200
     32 H2          -1.2630   -29.3190    10.9570 hc         1 P7S       0.050200
     33 H3          -4.2450   -29.8130     4.2060 hc         1 P7S       0.032200
     34 H4          -3.1070   -31.1380     4.1490 hc         1 P7S       0.032200
     35 H5          -1.5620   -27.1790     4.8950 h4         1 P7S      -0.050800
     36 H6           2.8170   -34.2600     9.7930 hc         1 P7S       0.040478
     37 H7           2.0200   -35.5010     8.8190 hc         1 P7S       0.040478
     38 H8           3.4520   -34.6850     8.2040 hc         1 P7S       0.040478
     39 H9           2.8120   -31.8290     9.0070 hc         1 P7S       0.040478
     40 H10          3.4040   -32.3580     7.4360 hc         1 P7S       0.040478
     41 H11          1.9530   -31.3680     7.5330 hc         1 P7S       0.040478
     42 H12          0.6740   -34.8170     6.7180 hc         1 P7S       0.040478
     43 H13          0.7750   -33.1500     6.1410 hc         1 P7S       0.040478
     44 H14          2.2050   -34.1720     6.1540 hc         1 P7S       0.040478
     45 H15          0.8050   -32.8880     9.9880 h1         1 P7S       0.082700
     46 H16          0.4060   -31.0370    10.7750 h1         1 P7S       0.051700
     47 H17          1.3570   -30.1020     9.6170 h1         1 P7S       0.051700
     48 H18         -0.1380   -28.0870     8.4040 hc         1 P7S       0.062200
     49 H19         -1.7870   -27.9240     9.0080 hc         1 P7S       0.062200
     50 H20         -2.3580   -30.1620     8.4230 h1         1 P7S       0.064700
     51 H21         -1.1990   -29.5310     4.2070 h1         1 P7S       0.118700
     52 H22         -2.7040   -35.5930     8.9390 ha         1 P7S       0.159000
     53 H23         -1.6810   -39.0860    12.2650 ha         1 P7S       0.131000
     54 H24         -0.2350   -37.1270    12.0950 ha         1 P7S       0.151000
     55 H25         -3.0580   -29.4500     6.5030 hn         1 P7S       0.302500
     56 H26         -0.8570   -34.7680     8.4580 hn         1 P7S       0.336500
     57 H27         -3.7110   -40.1600    11.6080 hn         1 P7S       0.413800
     58 H28         -4.7310   -39.5580    10.4090 hn         1 P7S       0.413800
     59 O22         -3.2490   -27.2440     3.8000 o          1 P7S      -0.503100
     60 C01          2.5340   -34.5400     8.7770 c3         1 P7S      -0.090100
     61 C24         -0.4080   -35.0500    10.4280 c          1 P7S       0.692700
@<TRIPOS>BOND
     1     1    12 1   
     2     1    13 1   
     3     1    31 1   
     4     1    32 1   
     5     2    14 1   
     6     2    22 1   
     7     2    26 2   
     8     3    15 1   
     9     3    16 1   
    10     3    33 1   
    11     3    34 1   
    12     4    15 1   
    13     4    35 1   
    14     4    59 2   
    15     5    17 ar  
    16     5    20 ar  
    17     5    61 1   
    18     6    17 ar  
    19     6    18 ar  
    20     6    30 1   
    21     7     8 1   
    22     7     9 1   
    23     7    10 1   
    24     7    60 1   
    25     8    39 1   
    26     8    40 1   
    27     8    41 1   
    28     9    42 1   
    29     9    43 1   
    30     9    44 1   
    31    10    11 1   
    32    10    23 1   
    33    10    45 1   
    34    11    21 1   
    35    11    25 2   
    36    12    21 1   
    37    12    46 1   
    38    12    47 1   
    39    13    14 1   
    40    13    48 1   
    41    13    49 1   
    42    14    21 1   
    43    14    50 1   
    44    15    22 1   
    45    15    51 1   
    46    16    27 1   
    47    16    28 1   
    48    17    52 1   
    49    18    19 ar  
    50    18    24 1   
    51    19    20 ar  
    52    19    53 1   
    53    20    54 1   
    54    22    55 1   
    55    23    56 1   
    56    23    61 1   
    57    24    57 1   
    58    24    58 1   
    59    29    61 2   
    60    36    60 1   
    61    37    60 1   
    62    38    60 1   
@<TRIPOS>SUBSTRUCTURE
     1 P7S         1 TEMP              0 ****  ****    0 ROOT
