@<TRIPOS>MOLECULE
P7S
   61    62     1     0     0
SMALL
No Charge or Current Charge


@<TRIPOS>ATOM
      1 C10         -0.3060   -28.8400    10.1040 c5         1 P7S      -0.096400
      2 C13         -1.0490   -29.7350     6.5050 c          1 P7S       0.603100
      3 C17         -3.0320   -29.9920     3.8760 c3         1 P7S      -0.220400
      4 C21         -3.0040   -27.4330     4.2340 c          1 P7S       0.576900
      5 C26         -1.2920   -36.4850    10.5760 ca         1 P7S      -0.197600
      6 C28         -2.8520   -38.0620     9.5300 ca         1 P7S       0.028000
      7 C02          1.5720   -33.5100     8.2720 c3         1 P7S      -0.046000
      8 C03          2.4420   -32.2320     8.1320 c3         1 P7S      -0.090100
      9 C04          1.1740   -33.9920     6.8480 c3         1 P7S      -0.090100
     10 C05          0.2910   -33.2350     9.1530 c3         1 P7S       0.047700
     11 C06         -0.6850   -32.1640     8.5500 c          1 P7S       0.598100
     12 C09          0.2510   -30.2820     9.9870 c5         1 P7S       0.108000
     13 C11         -0.5010   -28.4510     8.6200 c5         1 P7S      -0.086400
     14 C12         -1.1960   -29.7250     8.0610 c5         1 P7S       0.020700
     15 C16         -2.2800   -28.7830     4.4970 c3         1 P7S       0.010700
     16 C18         -3.0480   -29.8720     2.3470 c          1 P7S       0.732000
     17 C27         -2.0720   -36.8940     9.4660 ca         1 P7S      -0.025000
     18 C29         -2.8660   -38.8440    10.7070 ca         1 P7S       0.338000
     19 C30         -2.0960   -38.4450    11.8060 ca         1 P7S      -0.204000
     20 C31         -1.3150   -37.2780    11.7450 ca         1 P7S      -0.012000
     21 N08         -0.4420   -30.7900     8.7800 n          1 P7S      -0.394800
     22 N15         -2.0680   -28.9860     5.9500 ns         1 P7S      -0.490900
     23 N23         -0.4810   -34.4800     9.3990 ns         1 P7S      -0.489900
     24 N32         -3.6170   -39.9910    10.8040 nv         1 P7S      -1.085000
     25 O07         -1.6410   -32.5040     7.8580 o          1 P7S      -0.601100
     26 O14         -0.1880   -30.2960     5.8370 o          1 P7S      -0.607100
     27 O19         -3.9760   -29.2680     1.8330 o          1 P7S      -0.731000
     28 O20         -2.0950   -30.3110     1.7240 o          1 P7S      -0.731000
     29 O25          0.2600   -34.9090    11.5000 o          1 P7S      -0.626100
     30 Cl33        -3.8090   -38.5250     8.1160 cl         1 P7S      -0.206000
     31 H1           0.3780   -28.1690    10.6350 hc         1 P7S       0.050200
     32 H2          -1.2610   -28.8290    10.6430 hc         1 P7S       0.050200
     33 H3          -4.0510   -29.9670     4.2810 hc         1 P7S       0.032200
     34 H4          -2.4650   -30.8840     4.1690 hc         1 P7S       0.032200
     35 H5          -2.9470   -27.0550     3.1900 h4         1 P7S      -0.050800
     36 H6           2.7240   -34.3270     9.9580 hc         1 P7S       0.040478
     37 H7           1.9450   -35.5750     8.9620 hc         1 P7S       0.040478
     38 H8           3.3890   -34.7490     8.3700 hc         1 P7S       0.040478
     39 H9           2.7640   -31.8680     9.1140 hc         1 P7S       0.040478
     40 H10          3.3460   -32.4380     7.5450 hc         1 P7S       0.040478
     41 H11          1.9030   -31.4270     7.6200 hc         1 P7S       0.040478
     42 H12          0.5670   -34.9040     6.8900 hc         1 P7S       0.040478
     43 H13          0.6000   -33.2260     6.3120 hc         1 P7S       0.040478
     44 H14          2.0650   -34.2140     6.2480 hc         1 P7S       0.040478
     45 H15          0.6270   -32.8540    10.1240 h1         1 P7S       0.082700
     46 H16          0.0260   -30.8720    10.8860 h1         1 P7S       0.051700
     47 H17          1.3370   -30.2680     9.8390 h1         1 P7S       0.051700
     48 H18          0.4640   -28.2670     8.1310 hc         1 P7S       0.062200
     49 H19         -1.1100   -27.5480     8.4950 hc         1 P7S       0.062200
     50 H20         -2.2610   -29.7600     8.3280 h1         1 P7S       0.064700
     51 H21         -1.2990   -28.6950     4.0120 h1         1 P7S       0.118700
     52 H22         -2.0870   -36.3230     8.5410 ha         1 P7S       0.141000
     53 H23         -2.0970   -39.0390    12.7160 ha         1 P7S       0.113000
     54 H24         -0.7260   -36.9930    12.6150 ha         1 P7S       0.133000
     55 H25         -2.7180   -28.5480     6.5940 hn         1 P7S       0.302500
     56 H26         -1.1200   -34.7820     8.6760 hn         1 P7S       0.336500
     57 H27         -3.7600   -40.4260    11.7130 hn         1 P7S       0.469000
     58 H28         -4.2930   -40.2040    10.0710 hn         1 P7S       0.469000
     59 O22         -3.5850   -26.7840     5.1010 o          1 P7S      -0.503100
     60 C01          2.4570   -34.6060     8.9310 c3         1 P7S      -0.090100
     61 C24         -0.4370   -35.2370    10.5490 c          1 P7S       0.625700
@<TRIPOS>BOND
     1     1    12 1   
     2     1    13 1   
     3     1    31 1   
     4     1    32 1   
     5     2    14 1   
     6     2    22 1   
     7     2    26 2   
     8     3    15 1   
     9     3    16 1   
    10     3    33 1   
    11     3    34 1   
    12     4    15 1   
    13     4    35 1   
    14     4    59 2   
    15     5    17 ar  
    16     5    20 ar  
    17     5    61 1   
    18     6    17 ar  
    19     6    18 ar  
    20     6    30 1   
    21     7     8 1   
    22     7     9 1   
    23     7    10 1   
    24     7    60 1   
    25     8    39 1   
    26     8    40 1   
    27     8    41 1   
    28     9    42 1   
    29     9    43 1   
    30     9    44 1   
    31    10    11 1   
    32    10    23 1   
    33    10    45 1   
    34    11    21 1   
    35    11    25 2   
    36    12    21 1   
    37    12    46 1   
    38    12    47 1   
    39    13    14 1   
    40    13    48 1   
    41    13    49 1   
    42    14    21 1   
    43    14    50 1   
    44    15    22 1   
    45    15    51 1   
    46    16    27 1   
    47    16    28 1   
    48    17    52 1   
    49    18    19 ar  
    50    18    24 1   
    51    19    20 ar  
    52    19    53 1   
    53    20    54 1   
    54    22    55 1   
    55    23    56 1   
    56    23    61 1   
    57    24    57 1   
    58    24    58 1   
    59    29    61 2   
    60    36    60 1   
    61    37    60 1   
    62    38    60 1   
@<TRIPOS>SUBSTRUCTURE
     1 P7S         1 TEMP              0 ****  ****    0 ROOT
