@<TRIPOS>MOLECULE
P7T
   36    37     1     0     0
SMALL
bcc


@<TRIPOS>ATOM
      1 C01        -28.9730   -17.9310    -2.3050 c3         1 P7T      -0.091100
      2 C02        -28.0490   -17.9980    -1.1090 c6         1 P7T       0.149600
      3 C03        -27.1370   -19.2150    -1.1870 c6         1 P7T       0.154800
      4 C07        -24.2500   -20.8170    -1.0180 ca         1 P7T      -0.276500
      5 C08        -24.6650   -21.4800    -2.1710 ca         1 P7T      -0.050000
      6 C09        -23.7860   -21.6010    -3.2300 ca         1 P7T      -0.100500
      7 C10        -22.5030   -21.0640    -3.1350 ca         1 P7T      -0.149600
      8 C11        -22.1020   -20.4100    -1.9750 ca         1 P7T      -0.100500
      9 C12        -22.9750   -20.2810    -0.9060 ca         1 P7T      -0.050000
     10 C13        -21.5430   -21.1770    -4.2510 c          1 P7T       0.577500
     11 C15        -25.4460   -17.9380     0.0170 c6         1 P7T       0.154800
     12 C16        -26.4170   -16.7640     0.0460 c6         1 P7T       0.149600
     13 C18        -25.6720   -15.4470     0.0190 c3         1 P7T      -0.091100
     14 N04        -26.2120   -19.1820    -0.0540 n3         1 P7T      -0.716500
     15 O06        -24.6560   -20.3420     1.5250 o          1 P7T      -0.600800
     16 O14        -26.3810   -21.6580     0.2570 o          1 P7T      -0.600800
     17 O17        -27.2830   -16.8120    -1.0680 os         1 P7T      -0.406600
     18 S05        -25.4100   -20.5790     0.3070 sy         1 P7T       1.294200
     19 H1         -29.6220   -17.0580    -2.2440 hc         1 P7T       0.048033
     20 H2         -28.4110   -17.8790    -3.2390 hc         1 P7T       0.048033
     21 H3         -29.6060   -18.8170    -2.3390 hc         1 P7T       0.048033
     22 H4         -28.6460   -18.0820    -0.1880 h1         1 P7T       0.051700
     23 H5         -27.7470   -20.1160    -1.1410 h1         1 P7T       0.063700
     24 H6         -26.5950   -19.2090    -2.1430 h1         1 P7T       0.063700
     25 H7         -25.6560   -21.9070    -2.2420 ha         1 P7T       0.157500
     26 H8         -24.0970   -22.1160    -4.1290 ha         1 P7T       0.148000
     27 H9         -21.1020   -20.0000    -1.9020 ha         1 P7T       0.148000
     28 H10        -22.6520   -19.7820    -0.0030 ha         1 P7T       0.157500
     29 H11        -20.5590   -20.7150    -4.0590 h4         1 P7T      -0.003800
     30 H14        -24.8480   -17.9220     0.9250 h1         1 P7T       0.063700
     31 H15        -24.7720   -17.8370    -0.8450 h1         1 P7T       0.063700
     32 H16        -27.0060   -16.8350     0.9740 h1         1 P7T       0.051700
     33 H17        -25.0150   -15.3680     0.8850 hc         1 P7T       0.048033
     34 H18        -25.0610   -15.3570    -0.8800 hc         1 P7T       0.048033
     35 H19        -26.3660   -14.6070     0.0500 hc         1 P7T       0.048033
     36 O1         -21.7840   -21.7240    -5.2990 o          1 P7T      -0.500100
@<TRIPOS>BOND
     1     1     2 1   
     2     1    19 1   
     3     1    20 1   
     4     1    21 1   
     5     2     3 1   
     6     2    17 1   
     7     2    22 1   
     8     3    14 1   
     9     3    23 1   
    10     3    24 1   
    11     4     5 ar  
    12     4     9 ar  
    13     4    18 1   
    14     5     6 ar  
    15     5    25 1   
    16     6     7 ar  
    17     6    26 1   
    18     7     8 ar  
    19     7    10 1   
    20     8     9 ar  
    21     8    27 1   
    22     9    28 1   
    23    10    29 1   
    24    10    36 2   
    25    11    12 1   
    26    11    14 1   
    27    11    30 1   
    28    11    31 1   
    29    12    13 1   
    30    12    17 1   
    31    12    32 1   
    32    13    33 1   
    33    13    34 1   
    34    13    35 1   
    35    14    18 1   
    36    15    18 2   
    37    16    18 2   
@<TRIPOS>SUBSTRUCTURE
     1 P7T         1 TEMP              0 ****  ****    0 ROOT
