@<TRIPOS>MOLECULE
P7T
   36    37     1     0     0
SMALL
No Charge or Current Charge


@<TRIPOS>ATOM
      1 C01        -28.8500   -17.9630    -2.4710 c3         1 P7T      -0.091100
      2 C02        -28.0330   -18.0160    -1.1580 c6         1 P7T       0.172800
      3 C03        -27.1660   -19.3080    -1.0440 c6         1 P7T       0.154800
      4 C07        -24.3040   -20.8110    -0.9610 ca         1 P7T      -0.276500
      5 C08        -24.7040   -21.4910    -2.1300 ca         1 P7T      -0.032000
      6 C09        -23.8410   -21.5600    -3.2370 ca         1 P7T      -0.082500
      7 C10        -22.5660   -20.9560    -3.1900 ca         1 P7T      -0.149600
      8 C11        -22.1670   -20.2820    -2.0170 ca         1 P7T      -0.082500
      9 C12        -23.0280   -20.2110    -0.9080 ca         1 P7T      -0.032000
     10 C13        -21.6310   -21.0230    -4.3700 c          1 P7T       0.577500
     11 C15        -25.4840   -18.0240     0.2000 c6         1 P7T       0.154800
     12 C16        -26.3830   -16.7570     0.0620 c6         1 P7T       0.172800
     13 C18        -25.5590   -15.4520    -0.0390 c3         1 P7T      -0.091100
     14 N04        -26.2930   -19.2800     0.1690 n3         1 P7T      -0.716500
     15 O06        -24.6370   -20.4720     1.6820 o          1 P7T      -0.530000
     16 O14        -26.3920   -21.8080     0.4020 o          1 P7T      -0.530000
     17 O17        -27.1860   -16.8450    -1.1370 os         1 P7T      -0.453000
     18 S05        -25.4140   -20.7150     0.4600 sy         1 P7T       1.152600
     19 H1         -29.4490   -17.0460    -2.5230 hc         1 P7T       0.048033
     20 H2         -28.1940   -17.9900    -3.3490 hc         1 P7T       0.048033
     21 H3         -29.5380   -18.8130    -2.5390 hc         1 P7T       0.048033
     22 H4         -28.7290   -17.9680    -0.3070 h1         1 P7T       0.051700
     23 H5         -27.8430   -20.1740    -1.0160 h1         1 P7T       0.063700
     24 H6         -26.5580   -19.4010    -1.9550 h1         1 P7T       0.063700
     25 H7         -25.6820   -21.9650    -2.1880 ha         1 P7T       0.139500
     26 H8         -24.1670   -22.0870    -4.1320 ha         1 P7T       0.130000
     27 H9         -21.1870   -19.8120    -1.9600 ha         1 P7T       0.130000
     28 H10        -22.7000   -19.6860    -0.0120 ha         1 P7T       0.139500
     29 H11        -20.6480   -20.5180    -4.2390 h4         1 P7T      -0.003800
     30 H14        -24.9220   -17.9450     1.1420 h1         1 P7T       0.063700
     31 H15        -24.7470   -18.0190    -0.6170 h1         1 P7T       0.063700
     32 H16        -27.0500   -16.6870     0.9340 h1         1 P7T       0.051700
     33 H17        -24.9430   -15.3070     0.8560 hc         1 P7T       0.048033
     34 H18        -24.8900   -15.4690    -0.9080 hc         1 P7T       0.048033
     35 H19        -26.2160   -14.5790    -0.1350 hc         1 P7T       0.048033
     36 O1         -21.9070   -21.5900    -5.4220 o          1 P7T      -0.500100
@<TRIPOS>BOND
     1     1     2 1   
     2     1    19 1   
     3     1    20 1   
     4     1    21 1   
     5     2     3 1   
     6     2    17 1   
     7     2    22 1   
     8     3    14 1   
     9     3    23 1   
    10     3    24 1   
    11     4     5 ar  
    12     4     9 ar  
    13     4    18 1   
    14     5     6 ar  
    15     5    25 1   
    16     6     7 ar  
    17     6    26 1   
    18     7     8 ar  
    19     7    10 1   
    20     8     9 ar  
    21     8    27 1   
    22     9    28 1   
    23    10    29 1   
    24    10    36 2   
    25    11    12 1   
    26    11    14 1   
    27    11    30 1   
    28    11    31 1   
    29    12    13 1   
    30    12    17 1   
    31    12    32 1   
    32    13    33 1   
    33    13    34 1   
    34    13    35 1   
    35    14    18 1   
    36    15    18 2   
    37    16    18 2   
@<TRIPOS>SUBSTRUCTURE
     1 P7T         1 TEMP              0 ****  ****    0 ROOT
