@<TRIPOS>MOLECULE
P7V
   23    24     1     0     0
SMALL
abcg2


@<TRIPOS>ATOM
      1 C02          4.8300     0.1780     0.0470 c          1 P7V       0.543600
      2 C05          3.4940    -0.4450     0.0130 cc         1 P7V       0.160500
      3 C06          3.2180    -1.7680    -0.0250 cd         1 P7V       0.183900
      4 C08          1.3900    -0.6410    -0.0030 cd         1 P7V       0.508500
      5 C09         -0.0510    -0.4430    -0.0040 ca         1 P7V      -0.128500
      6 C10         -0.9370    -1.5170    -0.0580 ca         1 P7V      -0.071500
      7 C11         -2.3050    -1.2960    -0.0580 ca         1 P7V      -0.091000
      8 C12         -2.7840     0.0040    -0.0040 ca         1 P7V      -0.001900
      9 C14         -1.9160     1.0870     0.0500 ca         1 P7V      -0.091000
     10 C15         -0.5520     0.8570     0.0490 ca         1 P7V      -0.071500
     11 N03          4.7870     1.5210     0.0190 ns         1 P7V      -0.368400
     12 N16          2.3130     0.2580     0.0270 nc         1 P7V      -0.678000
     13 O01          5.8500    -0.4880     0.0700 o          1 P7V      -0.573100
     14 O04          5.9270     2.2320     0.2270 oh         1 P7V      -0.423100
     15 O07          1.8780    -1.8920    -0.0360 os         1 P7V      -0.249000
     16 BR1         -4.6440     0.3080    -0.0040 br         1 P7V      -0.084100
     17 H1           3.8110    -2.6660    -0.0460 h4         1 P7V       0.086100
     18 H2          -0.5780    -2.5360    -0.1010 ha         1 P7V       0.134500
     19 H3          -2.9810    -2.1390    -0.1000 ha         1 P7V       0.135500
     20 H4          -2.2880     2.1010     0.0920 ha         1 P7V       0.135500
     21 H5           0.1270     1.6980     0.0910 ha         1 P7V       0.134500
     22 H6           3.9250     2.0310     0.1510 hn         1 P7V       0.359500
     23 H7           6.2490     2.4870    -0.6480 ho         1 P7V       0.447000
@<TRIPOS>BOND
     1     1     2 1   
     2     1    11 1   
     3     1    13 2   
     4     2     3 2   
     5     2    12 1   
     6     3    15 1   
     7     3    17 1   
     8     4     5 1   
     9     4    12 2   
    10     4    15 1   
    11     5     6 ar  
    12     5    10 ar  
    13     6     7 ar  
    14     6    18 1   
    15     7     8 ar  
    16     7    19 1   
    17     8     9 ar  
    18     8    16 1   
    19     9    10 ar  
    20     9    20 1   
    21    10    21 1   
    22    11    14 1   
    23    11    22 1   
    24    14    23 1   
@<TRIPOS>SUBSTRUCTURE
     1 P7V         1 TEMP              0 ****  ****    0 ROOT
