@<TRIPOS>MOLECULE
P7V
   23    24     1     0     0
SMALL
No Charge or Current Charge


@<TRIPOS>ATOM
      1 C02          4.8910     0.0950    -0.0160 c          1 P7V       0.543600
      2 C05          3.4930    -0.4310    -0.0180 cc         1 P7V       0.160500
      3 C06          3.2020    -1.7640    -0.0250 cd         1 P7V       0.183900
      4 C08          1.3900    -0.6620    -0.0140 cd         1 P7V       0.508500
      5 C09         -0.0720    -0.4410    -0.0090 ca         1 P7V      -0.128500
      6 C10         -0.9720    -1.5330    -0.0140 ca         1 P7V      -0.071500
      7 C11         -2.3610    -1.3150    -0.0090 ca         1 P7V      -0.091000
      8 C12         -2.8670    -0.0060     0.0010 ca         1 P7V      -0.001900
      9 C14         -1.9870     1.0870     0.0050 ca         1 P7V      -0.091000
     10 C15         -0.5970     0.8720     0.0000 ca         1 P7V      -0.071500
     11 N03          4.9450     1.4850    -0.0170 ns         1 P7V      -0.368400
     12 N16          2.3170     0.2900    -0.0100 nc         1 P7V      -0.678000
     13 O01          5.8990    -0.6050    -0.0200 o          1 P7V      -0.573100
     14 O04          6.1780     2.1880     0.2770 oh         1 P7V      -0.423100
     15 O07          1.8540    -1.9510    -0.0240 os         1 P7V      -0.249000
     16 Br1         -4.7560     0.2890     0.0070 br         1 P7V      -0.084100
     17 H1           3.8410    -2.6370    -0.0310 h4         1 P7V       0.086100
     18 H2          -0.6020    -2.5560    -0.0220 ha         1 P7V       0.134500
     19 H3          -3.0430    -2.1620    -0.0130 ha         1 P7V       0.135500
     20 H4          -2.3790     2.1020     0.0130 ha         1 P7V       0.135500
     21 H5           0.0710     1.7310     0.0040 ha         1 P7V       0.134500
     22 H6           4.0750     1.9990     0.1310 hn         1 P7V       0.359500
     23 H7           6.2430     2.8540    -0.4480 ho         1 P7V       0.447000
@<TRIPOS>BOND
     1     1     2 1   
     2     1    11 1   
     3     1    13 2   
     4     2     3 2   
     5     2    12 1   
     6     3    15 1   
     7     3    17 1   
     8     4     5 1   
     9     4    12 2   
    10     4    15 1   
    11     5     6 ar  
    12     5    10 ar  
    13     6     7 ar  
    14     6    18 1   
    15     7     8 ar  
    16     7    19 1   
    17     8     9 ar  
    18     8    16 1   
    19     9    10 ar  
    20     9    20 1   
    21    10    21 1   
    22    11    14 1   
    23    11    22 1   
    24    14    23 1   
@<TRIPOS>SUBSTRUCTURE
     1 P7V         1 TEMP              0 ****  ****    0 ROOT
