@<TRIPOS>MOLECULE
P7W
   23    22     1     0     0
SMALL
No Charge or Current Charge


@<TRIPOS>ATOM
      1 O42         35.4360    20.7900    23.8660 o          1 P7W      -0.786250
      2 O41         36.8160    22.4350    23.8000 o          1 P7W      -0.786250
      3 C4          36.2070    21.5220    23.2650 c          1 P7W       0.701500
      4 C41         36.4590    21.2510    21.7690 c3         1 P7W      -0.182400
      5 C32         37.6370    20.2580    21.5950 c3         1 P7W      -0.030400
      6 C3          36.8590    19.3880    19.2990 c          1 P7W       0.724000
      7 O31         36.4200    20.0320    18.3560 o          1 P7W      -0.774500
      8 O32         36.4100    18.2970    19.6210 o          1 P7W      -0.774500
      9 C22         39.3140    19.1060    20.0260 c3         1 P7W      -0.030400
     10 C2          41.1720    18.1090    18.6180 c          1 P7W       0.701500
     11 O21         41.1090    16.8900    18.5570 o          1 P7W      -0.786250
     12 O22         42.2240    18.7180    18.7390 o          1 P7W      -0.786250
     13 C21         39.8590    18.9130    18.5870 c3         1 P7W      -0.182400
     14 C31         38.0360    19.9890    20.1150 c3         1 P7W      -0.186700
     15 H412        36.7650    22.1740    21.2620 hc         1 P7W       0.023700
     16 H411        35.5830    20.7690    21.3190 hc         1 P7W       0.023700
     17 H322        37.3860    19.3090    22.0840 hc         1 P7W       0.017950
     18 H321        38.5090    20.6600    22.1260 hc         1 P7W       0.017950
     19 H221        39.1110    18.1230    20.4690 hc         1 P7W       0.017950
     20 H222        40.1020    19.5660    20.6350 hc         1 P7W       0.017950
     21 H4          40.0410    19.9220    18.1970 hc         1 P7W       0.023700
     22 H21         39.0880    18.3590    18.0380 hc         1 P7W       0.023700
     23 H31         38.2900    20.9610    19.6720 hc         1 P7W       0.013700
@<TRIPOS>BOND
     1     1     3 1   
     2     2     3 1   
     3     3     4 1   
     4     4     5 1   
     5     4    15 1   
     6     4    16 1   
     7     5    14 1   
     8     5    17 1   
     9     5    18 1   
    10     6     7 1   
    11     6     8 1   
    12     6    14 1   
    13     9    13 1   
    14     9    14 1   
    15     9    19 1   
    16     9    20 1   
    17    10    11 1   
    18    10    12 1   
    19    10    13 1   
    20    13    21 1   
    21    13    22 1   
    22    14    23 1   
@<TRIPOS>SUBSTRUCTURE
     1 P7W         1 TEMP              0 ****  ****    0 ROOT
