@<TRIPOS>MOLECULE
P7W
   23    22     1     0     0
SMALL
abcg2


@<TRIPOS>ATOM
      1 O42         36.2870    20.6000    24.0930 o          1 P7W      -0.786250
      2 O41         35.6670    22.6650    23.4860 o          1 P7W      -0.786250
      3 C4          36.1500    21.5240    23.2480 c          1 P7W       0.701500
      4 C41         36.5640    21.2410    21.7930 c3         1 P7W      -0.182400
      5 C32         37.7020    20.2410    21.6100 c3         1 P7W      -0.030400
      6 C3          36.9190    19.4920    19.3150 c          1 P7W       0.724000
      7 O31         36.5130    20.2010    18.3550 o          1 P7W      -0.774500
      8 O32         36.4350    18.3790    19.6530 o          1 P7W      -0.774500
      9 C22         39.3170    19.0960    20.0450 c3         1 P7W      -0.030400
     10 C2          41.0600    17.9700    18.5920 c          1 P7W       0.701500
     11 O21         40.8380    16.7590    18.3220 o          1 P7W      -0.786250
     12 O22         42.1860    18.4630    18.8750 o          1 P7W      -0.786250
     13 C21         39.8530    18.9200    18.6200 c3         1 P7W      -0.182400
     14 C31         38.1050    20.0300    20.1460 c3         1 P7W      -0.186700
     15 H412        36.8160    22.1920    21.3170 hc         1 P7W       0.023700
     16 H411        35.6680    20.8730    21.2800 hc         1 P7W       0.023700
     17 H322        37.4180    19.2810    22.0440 hc         1 P7W       0.017950
     18 H321        38.5800    20.5900    22.1660 hc         1 P7W       0.017950
     19 H221        39.0420    18.1180    20.4510 hc         1 P7W       0.017950
     20 H222        40.1180    19.4910    20.6790 hc         1 P7W       0.017950
     21 H4          40.1510    19.8960    18.2260 hc         1 P7W       0.023700
     22 H21         39.0640    18.5200    17.9800 hc         1 P7W       0.023700
     23 H31         38.3830    20.9990    19.7190 hc         1 P7W       0.013700
@<TRIPOS>BOND
     1     1     3 1   
     2     2     3 1   
     3     3     4 1   
     4     4     5 1   
     5     4    15 1   
     6     4    16 1   
     7     5    14 1   
     8     5    17 1   
     9     5    18 1   
    10     6     7 1   
    11     6     8 1   
    12     6    14 1   
    13     9    13 1   
    14     9    14 1   
    15     9    19 1   
    16     9    20 1   
    17    10    11 1   
    18    10    12 1   
    19    10    13 1   
    20    13    21 1   
    21    13    22 1   
    22    14    23 1   
@<TRIPOS>SUBSTRUCTURE
     1 P7W         1 TEMP              0 ****  ****    0 ROOT
