@<TRIPOS>MOLECULE
P7Y
   19    19     1     0     0
SMALL
bcc


@<TRIPOS>ATOM
      1 C1          -1.6170     0.5340    -0.1330 c2         1 P7Y      -0.251100
      2 N1          -2.9690     0.0710    -0.0390 no         1 P7Y       0.284100
      3 O1          -3.1960    -1.0860     0.2450 o          1 P7Y      -0.215000
      4 C2          -0.5900    -0.3010     0.0510 ce         1 P7Y       0.005800
      5 O2          -3.8360     0.8920    -0.2590 o          1 P7Y      -0.215000
      6 C7           0.8080     0.0830     0.0120 ca         1 P7Y      -0.189800
      7 C8           1.8160    -0.8930    -0.1060 ca         1 P7Y       0.188100
      8 O3           1.5830    -2.2070    -0.2400 oh         1 P7Y      -0.489100
      9 C3           3.1590    -0.5110    -0.0910 ca         1 P7Y      -0.174000
     10 C4           3.5060     0.8190     0.0280 ca         1 P7Y      -0.061000
     11 C5           2.5220     1.8010     0.1340 ca         1 P7Y      -0.171000
     12 C6           1.1970     1.4280     0.1260 ca         1 P7Y      -0.057000
     13 H1          -1.5440     1.5830    -0.3740 h4         1 P7Y       0.184000
     14 H2          -0.8360    -1.3350     0.2650 ha         1 P7Y       0.150000
     15 HO2          0.6570    -2.4130    -0.4010 ho         1 P7Y       0.438000
     16 H3           3.9210    -1.2740    -0.1800 ha         1 P7Y       0.155000
     17 H4           4.5530     1.0940     0.0380 ha         1 P7Y       0.140000
     18 H5           2.7920     2.8430     0.2330 ha         1 P7Y       0.143000
     19 H6           0.4370     2.1910     0.2360 ha         1 P7Y       0.135000
@<TRIPOS>BOND
     1     1     2 1   
     2     1     4 2   
     3     1    13 1   
     4     2     3 1   
     5     2     5 1   
     6     4     6 1   
     7     4    14 1   
     8     6     7 ar  
     9     6    12 ar  
    10     7     8 1   
    11     7     9 ar  
    12     8    15 1   
    13     9    10 ar  
    14     9    16 1   
    15    10    11 ar  
    16    10    17 1   
    17    11    12 ar  
    18    11    18 1   
    19    12    19 1   
@<TRIPOS>SUBSTRUCTURE
     1 P7Y         1 TEMP              0 ****  ****    0 ROOT
