@<TRIPOS>MOLECULE
P7Y
   19    19     1     0     0
SMALL
No Charge or Current Charge


@<TRIPOS>ATOM
      1 C1          -1.6250     0.4360    -0.2260 c2         1 P7Y      -0.301100
      2 N1          -3.0290     0.0720    -0.1030 no         1 P7Y       0.664100
      3 O1          -3.3170    -0.9930     0.4550 o          1 P7Y      -0.405000
      4 C2          -0.6050    -0.3230     0.2460 ce         1 P7Y      -0.044200
      5 O2          -3.8590     0.8560    -0.5740 o          1 P7Y      -0.405000
      6 C7           0.8320     0.0640     0.1220 ca         1 P7Y      -0.189800
      7 C8           1.8400    -0.8940    -0.1290 ca         1 P7Y       0.188100
      8 O3           1.5280    -2.2060    -0.3340 oh         1 P7Y      -0.528100
      9 C3           3.1870    -0.5060    -0.2000 ca         1 P7Y      -0.156000
     10 C4           3.5470     0.8410    -0.0310 ca         1 P7Y      -0.043000
     11 C5           2.5520     1.8010     0.2100 ca         1 P7Y      -0.153000
     12 C6           1.2030     1.4160     0.2870 ca         1 P7Y      -0.039000
     13 H1          -1.4880     1.3800    -0.7440 h4         1 P7Y       0.234000
     14 H2          -0.7990    -1.2700     0.7590 ha         1 P7Y       0.200000
     15 HO2          0.5730    -2.2620    -0.5470 ho         1 P7Y       0.477000
     16 H3           3.9550    -1.2500    -0.3950 ha         1 P7Y       0.137000
     17 H4           4.5920     1.1390    -0.0890 ha         1 P7Y       0.122000
     18 H5           2.8270     2.8450     0.3430 ha         1 P7Y       0.125000
     19 H6           0.4480     2.1720     0.4930 ha         1 P7Y       0.117000
@<TRIPOS>BOND
     1     1     2 1   
     2     1     4 2   
     3     1    13 1   
     4     2     3 1   
     5     2     5 1   
     6     4     6 1   
     7     4    14 1   
     8     6     7 ar  
     9     6    12 ar  
    10     7     8 1   
    11     7     9 ar  
    12     8    15 1   
    13     9    10 ar  
    14     9    16 1   
    15    10    11 ar  
    16    10    17 1   
    17    11    12 ar  
    18    11    18 1   
    19    12    19 1   
@<TRIPOS>SUBSTRUCTURE
     1 P7Y         1 TEMP              0 ****  ****    0 ROOT
