@<TRIPOS>MOLECULE
P80
   19    19     1     0     0
SMALL
No Charge or Current Charge


@<TRIPOS>ATOM
      1 C1          -1.9700    -0.3330     0.0110 c2         1 P80      -0.294100
      2 N1          -3.3220     0.2060     0.0240 no         1 P80       0.664100
      3 O1          -4.2540    -0.6030    -0.0210 o          1 P80      -0.404000
      4 C2          -0.8530     0.4400     0.0560 ce         1 P80      -0.046200
      5 O2          -3.4700     1.4320     0.0780 o          1 P80      -0.404000
      6 C7           0.5550    -0.0640     0.0460 ca         1 P80      -0.053800
      7 C8           1.6150     0.8640     0.1030 ca         1 P80      -0.175000
      8 C3           2.9500     0.4260     0.0950 ca         1 P80       0.138100
      9 O3           3.9700     1.3300     0.1510 oh         1 P80      -0.528100
     10 C4           3.2410    -0.9440     0.0300 ca         1 P80      -0.118000
     11 C5           2.1950    -1.8790    -0.0270 ca         1 P80      -0.080000
     12 C6           0.8590    -1.4420    -0.0200 ca         1 P80      -0.112000
     13 H1          -1.9690    -1.4160    -0.0380 h4         1 P80       0.233000
     14 H2          -0.9380     1.5280     0.1050 ha         1 P80       0.210000
     15 H3           1.3980     1.9280     0.1540 ha         1 P80       0.119000
     16 HO3          3.5850     2.2320     0.1910 ho         1 P80       0.470000
     17 H4           4.2740    -1.2810     0.0240 ha         1 P80       0.135000
     18 H5           2.4190    -2.9430    -0.0780 ha         1 P80       0.123000
     19 H6           0.0700    -2.1870    -0.0650 ha         1 P80       0.121000
@<TRIPOS>BOND
     1     1     2 1   
     2     1     4 2   
     3     1    13 1   
     4     2     3 1   
     5     2     5 1   
     6     4     6 1   
     7     4    14 1   
     8     6     7 ar  
     9     6    12 ar  
    10     7     8 ar  
    11     7    15 1   
    12     8     9 1   
    13     8    10 ar  
    14     9    16 1   
    15    10    11 ar  
    16    10    17 1   
    17    11    12 ar  
    18    11    18 1   
    19    12    19 1   
@<TRIPOS>SUBSTRUCTURE
     1 P80         1 TEMP              0 ****  ****    0 ROOT
