@<TRIPOS>MOLECULE
P80
   19    19     1     0     0
SMALL
bcc


@<TRIPOS>ATOM
      1 H1          -1.9290    -0.3530     0.0110 c2         1 P80      -0.217000
      2 H1          -3.2360     0.2360     0.0260 n3         1 P80       0.557000
      3 H1          -4.1730    -0.5330    -0.0220 o          1 P80      -0.364000
      4 H2          -0.8310     0.4050     0.0540 c2         1 P80      -0.008000
      5 H2          -3.3560     1.4400     0.0840 o          1 P80      -0.364000
      6 H7           0.5350    -0.0960     0.0440 ca         1 P80      -0.042000
      7 H8           1.5650     0.8440     0.1020 ca         1 P80      -0.193000
      8 H3           2.8960     0.4400     0.0980 ca         1 P80       0.093000
      9 H3           3.9180     1.3130     0.1520 oh         1 P80      -0.243000
     10 H4           3.2000    -0.9170     0.0320 ca         1 P80      -0.136000
     11 H5           2.1740    -1.8500    -0.0260 ca         1 P80      -0.098000
     12 H6           0.8480    -1.4570    -0.0210 ca         1 P80      -0.130000
     13 H1          -1.9510    -1.4310    -0.0350 ha         1 P80       0.183000
     14 H2          -0.9420     1.4820     0.1010 ha         1 P80       0.160000
     15 H3           1.3230     1.9000     0.1540 ha         1 P80       0.137000
     16 HO3          3.5900     2.2190     0.1830 ha         1 P80       0.230000
     17 H4           4.2340    -1.2370     0.0270 ha         1 P80       0.153000
     18 H5           2.4200    -2.9030    -0.0770 ha         1 P80       0.141000
     19 H6           0.0700    -2.2070    -0.0680 ha         1 P80       0.139000
@<TRIPOS>BOND
     1     1     2 1   
     2     1     4 2   
     3     1    13 1   
     4     2     3 1   
     5     2     5 1   
     6     4     6 1   
     7     4    14 1   
     8     6     7 ar  
     9     6    12 ar  
    10     7     8 ar  
    11     7    15 1   
    12     8     9 1   
    13     8    10 ar  
    14     9    16 1   
    15    10    11 ar  
    16    10    17 1   
    17    11    12 ar  
    18    11    18 1   
    19    12    19 1   
@<TRIPOS>SUBSTRUCTURE
     1 P80         1 TEMP              0 ****  ****    0 ROOT
