@<TRIPOS>MOLECULE
P81
   19    19     1     0     0
SMALL
No Charge or Current Charge


@<TRIPOS>ATOM
      1 C1          -2.0000     0.3990    -0.0460 c2         1 P81      -0.313100
      2 N1          -3.4280     0.1240    -0.0560 no         1 P81       0.666100
      3 O1          -3.8060    -1.0500     0.0390 o          1 P81      -0.408500
      4 C2          -1.0500    -0.5670     0.0560 ce         1 P81      -0.027200
      5 O2          -4.1890     1.0910    -0.1580 o          1 P81      -0.408500
      6 C7           0.4260    -0.3290     0.0650 ca         1 P81      -0.142800
      7 C8           0.9750     0.9690     0.1600 ca         1 P81      -0.028500
      8 C3           2.3690     1.1530     0.1680 ca         1 P81      -0.188000
      9 C4           3.2260     0.0460     0.0810 ca         1 P81       0.175100
     10 O4           4.5770     0.2160     0.0880 oh         1 P81      -0.522100
     11 C5           2.6910    -1.2450    -0.0110 ca         1 P81      -0.188000
     12 C6           1.2980    -1.4340    -0.0180 ca         1 P81      -0.028500
     13 H1          -1.7930     1.4590    -0.1370 h4         1 P81       0.230000
     14 H2          -1.3390    -1.6190     0.1310 ha         1 P81       0.209000
     15 H4           0.3330     1.8430     0.2360 ha         1 P81       0.121000
     16 H3           2.7740     2.1590     0.2430 ha         1 P81       0.129500
     17 HO4          4.7670     1.1760     0.1570 ho         1 P81       0.473000
     18 H5           3.3550    -2.1030    -0.0760 ha         1 P81       0.129500
     19 H6           0.8990    -2.4440    -0.0910 ha         1 P81       0.121000
@<TRIPOS>BOND
     1     1     2 1   
     2     1     4 2   
     3     1    13 1   
     4     2     3 1   
     5     2     5 1   
     6     4     6 1   
     7     4    14 1   
     8     6     7 ar  
     9     6    12 ar  
    10     7     8 ar  
    11     7    15 1   
    12     8     9 ar  
    13     8    16 1   
    14     9    10 1   
    15     9    11 ar  
    16    10    17 1   
    17    11    12 ar  
    18    11    18 1   
    19    12    19 1   
@<TRIPOS>SUBSTRUCTURE
     1 P81         1 TEMP              0 ****  ****    0 ROOT
