@<TRIPOS>MOLECULE
P81
   19    19     1     0     0
SMALL
bcc


@<TRIPOS>ATOM
      1 H1          -1.9700     0.4160     0.0080 c2         1 P81      -0.236000
      2 H1          -3.3530     0.0670    -0.0310 n3         1 P81       0.559000
      3 H1          -3.6850    -1.1010    -0.0490 o          1 P81      -0.368500
      4 H2          -1.0190    -0.5260    -0.0030 c2         1 P81       0.011000
      5 H2          -4.1470     0.9870    -0.0430 o          1 P81      -0.368500
      6 H7           0.4060    -0.2870     0.0310 ca         1 P81      -0.131000
      7 H8           0.9750     0.9920     0.0920 ca         1 P81      -0.046500
      8 H3           2.3420     1.1610     0.1270 ca         1 P81      -0.206000
      9 H4           3.1880     0.0480     0.0960 ca         1 P81       0.130000
     10 H4           4.5210     0.1580     0.1270 oh         1 P81      -0.237000
     11 H5           2.6410    -1.2340     0.0360 ca         1 P81      -0.206000
     12 H6           1.2700    -1.3880     0.0040 ca         1 P81      -0.046500
     13 H1          -1.8030     1.4820     0.0510 ha         1 P81       0.180000
     14 H2          -1.3240    -1.5660    -0.0420 ha         1 P81       0.159000
     15 H4           0.3470     1.8730     0.1160 ha         1 P81       0.139000
     16 H3           2.7580     2.1610     0.1750 ha         1 P81       0.147500
     17 HO4          4.7880     1.0840     0.1690 ha         1 P81       0.233000
     18 H5           3.2920    -2.0970     0.0110 ha         1 P81       0.147500
     19 H6           0.8560    -2.3890    -0.0430 ha         1 P81       0.139000
@<TRIPOS>BOND
     1     1     2 1   
     2     1     4 2   
     3     1    13 1   
     4     2     3 1   
     5     2     5 1   
     6     4     6 1   
     7     4    14 1   
     8     6     7 ar  
     9     6    12 ar  
    10     7     8 ar  
    11     7    15 1   
    12     8     9 ar  
    13     8    16 1   
    14     9    10 1   
    15     9    11 ar  
    16    10    17 1   
    17    11    12 ar  
    18    11    18 1   
    19    12    19 1   
@<TRIPOS>SUBSTRUCTURE
     1 P81         1 TEMP              0 ****  ****    0 ROOT
