@<TRIPOS>MOLECULE
P81
   19    19     1     0     0
SMALL
abcg2


@<TRIPOS>ATOM
      1 C1          -1.9700     0.4160     0.0080 c2         1 P81      -0.313100
      2 N1          -3.3530     0.0670    -0.0310 no         1 P81       0.666100
      3 O1          -3.6850    -1.1010    -0.0490 o          1 P81      -0.408500
      4 C2          -1.0190    -0.5260    -0.0030 ce         1 P81      -0.027200
      5 O2          -4.1470     0.9870    -0.0430 o          1 P81      -0.408500
      6 C7           0.4060    -0.2870     0.0310 ca         1 P81      -0.142800
      7 C8           0.9750     0.9920     0.0920 ca         1 P81      -0.028500
      8 C3           2.3420     1.1610     0.1270 ca         1 P81      -0.188000
      9 C4           3.1880     0.0480     0.0960 ca         1 P81       0.175100
     10 O4           4.5210     0.1580     0.1270 oh         1 P81      -0.522100
     11 C5           2.6410    -1.2340     0.0360 ca         1 P81      -0.188000
     12 C6           1.2700    -1.3880     0.0040 ca         1 P81      -0.028500
     13 H1          -1.8030     1.4820     0.0510 h4         1 P81       0.230000
     14 H2          -1.3240    -1.5660    -0.0420 ha         1 P81       0.209000
     15 H4           0.3470     1.8730     0.1160 ha         1 P81       0.121000
     16 H3           2.7580     2.1610     0.1750 ha         1 P81       0.129500
     17 HO4          4.7880     1.0840     0.1690 ho         1 P81       0.473000
     18 H5           3.2920    -2.0970     0.0110 ha         1 P81       0.129500
     19 H6           0.8560    -2.3890    -0.0430 ha         1 P81       0.121000
@<TRIPOS>BOND
     1     1     2 1   
     2     1     4 2   
     3     1    13 1   
     4     2     3 1   
     5     2     5 1   
     6     4     6 1   
     7     4    14 1   
     8     6     7 ar  
     9     6    12 ar  
    10     7     8 ar  
    11     7    15 1   
    12     8     9 ar  
    13     8    16 1   
    14     9    10 1   
    15     9    11 ar  
    16    10    17 1   
    17    11    12 ar  
    18    11    18 1   
    19    12    19 1   
@<TRIPOS>SUBSTRUCTURE
     1 P81         1 TEMP              0 ****  ****    0 ROOT
