@<TRIPOS>MOLECULE
P83
   36    38     1     0     0
SMALL
No Charge or Current Charge


@<TRIPOS>ATOM
      1 C1         125.1720   105.1900   -40.9850 ca         1 P83      -0.148000
      2 C2         125.0470   106.5950   -40.9160 ca         1 P83      -0.056000
      3 C3         124.7420   107.3590   -42.0750 ca         1 P83      -0.128300
      4 C4         124.5580   106.7160   -43.3230 ca         1 P83      -0.047000
      5 C4A        124.6830   105.3150   -43.3850 cp         1 P83      -0.091000
      6 C4B        124.5640   104.3810   -44.5030 cp         1 P83      -0.084000
      7 C5         124.2880   104.5860   -45.8680 ca         1 P83      -0.053000
      8 C6         124.2480   103.4600   -46.7210 ca         1 P83      -0.148000
      9 C7         124.4840   102.1570   -46.2140 ca         1 P83      -0.083000
     10 C8         124.7620   101.9570   -44.8450 ca         1 P83      -0.142000
     11 C8A        124.7910   103.0910   -44.0240 ca         1 P83       0.000800
     12 N9         125.0330   103.2480   -42.6490 na         1 P83      -0.098600
     13 C9A        124.9810   104.5890   -42.2350 ca         1 P83       0.003800
     14 C91        125.3390   102.1280   -41.7430 c3         1 P83       0.083600
     15 C92        126.8460   101.8290   -41.6520 c3         1 P83      -0.118100
     16 C31        124.6210   108.8720   -41.9740 c3         1 P83       0.209100
     17 N32        123.2920   109.2460   -41.4610 n7         1 P83      -0.860400
     18 C33        123.0450   110.6960   -41.3590 c3         1 P83       0.144100
     19 H1         125.4080   104.6040   -40.1010 ha         1 P83       0.116000
     20 H2         125.1860   107.0970   -39.9610 ha         1 P83       0.125000
     21 H4         124.3280   107.2880   -44.2190 ha         1 P83       0.112000
     22 H311       125.4100   109.2520   -41.3090 h1         1 P83       0.033700
     23 H312       124.7880   109.3150   -42.9660 h1         1 P83       0.033700
     24 H5         124.1110   105.5870   -46.2550 ha         1 P83       0.114000
     25 H6         124.0360   103.5960   -47.7790 ha         1 P83       0.112000
     26 H7         124.4510   101.3030   -46.8880 ha         1 P83       0.109000
     27 H8         124.9460   100.9620   -44.4490 ha         1 P83       0.115000
     28 H911       124.9530   102.3630   -40.7430 h1         1 P83       0.055200
     29 H912       124.8100   101.2320   -42.0930 h1         1 P83       0.055200
     30 H921       127.2470   101.5650   -42.6380 hc         1 P83       0.046367
     31 H922       127.3910   102.7040   -41.2780 hc         1 P83       0.046367
     32 H923       127.0280   100.9910   -40.9700 hc         1 P83       0.046367
     33 H32        122.5910   108.8440   -42.0960 hn         1 P83       0.411000
     34 H331       123.7710   111.1700   -40.6840 h1         1 P83       0.028700
     35 H332       123.1260   111.1780   -42.3430 h1         1 P83       0.028700
     36 H333       122.0380   110.8900   -40.9670 h1         1 P83       0.028700
@<TRIPOS>BOND
     1     1     2 ar  
     2     1    13 ar  
     3     1    19 1   
     4     2     3 ar  
     5     2    20 1   
     6     3     4 ar  
     7     3    16 1   
     8     4     5 ar  
     9     4    21 1   
    10     5     6 1   
    11     5    13 ar  
    12     6     7 ar  
    13     6    11 ar  
    14     7     8 ar  
    15     7    24 1   
    16     8     9 ar  
    17     8    25 1   
    18     9    10 ar  
    19     9    26 1   
    20    10    11 ar  
    21    10    27 1   
    22    11    12 1   
    23    12    13 1   
    24    12    14 1   
    25    14    15 1   
    26    14    28 1   
    27    14    29 1   
    28    15    30 1   
    29    15    31 1   
    30    15    32 1   
    31    16    17 1   
    32    16    22 1   
    33    16    23 1   
    34    17    18 1   
    35    17    33 1   
    36    18    34 1   
    37    18    35 1   
    38    18    36 1   
@<TRIPOS>SUBSTRUCTURE
     1 P83         1 TEMP              0 ****  ****    0 ROOT
