@<TRIPOS>MOLECULE
P83
   36    38     1     0     0
SMALL
bcc


@<TRIPOS>ATOM
      1 C1         124.9760   105.2240   -41.1270 ca         1 P83      -0.166000
      2 C2         124.8250   106.5980   -41.0930 ca         1 P83      -0.074000
      3 C3         124.5790   107.3550   -42.2520 ca         1 P83      -0.128300
      4 C4         124.4750   106.7090   -43.4730 ca         1 P83      -0.065000
      5 C4A        124.6250   105.3250   -43.5390 cp         1 P83      -0.091000
      6 C4B        124.5860   104.3700   -44.6140 cp         1 P83      -0.084000
      7 C5         124.3880   104.4710   -45.9900 ca         1 P83      -0.071000
      8 C6         124.4230   103.3210   -46.7590 ca         1 P83      -0.166000
      9 C7         124.6550   102.0740   -46.1660 ca         1 P83      -0.101000
     10 C8         124.8540   101.9460   -44.8010 ca         1 P83      -0.160000
     11 C8A        124.8120   103.1060   -44.0310 ca         1 P83       0.000800
     12 N9         124.9630   103.2540   -42.6730 na         1 P83      -0.069300
     13 C9A        124.8700   104.5900   -42.3640 ca         1 P83       0.003800
     14 C91        125.2880   102.1980   -41.7410 c3         1 P83       0.054300
     15 C92        126.7850   101.9710   -41.6000 c3         1 P83      -0.118100
     16 C31        124.4430   108.8500   -42.1540 c3         1 P83       0.209100
     17 N32        123.4560   109.2340   -41.1640 n7         1 P83      -0.805200
     18 C33        123.3280   110.6720   -41.0400 c3         1 P83       0.144100
     19 H1         125.1740   104.6700   -40.2190 ha         1 P83       0.134000
     20 H2         124.8980   107.1100   -40.1420 ha         1 P83       0.143000
     21 H4         124.2800   107.2820   -44.3730 ha         1 P83       0.130000
     22 H311       125.4010   109.2860   -41.8510 h1         1 P83       0.033700
     23 H312       124.2290   109.2600   -43.1540 h1         1 P83       0.033700
     24 H5         124.2080   105.4340   -46.4520 ha         1 P83       0.132000
     25 H6         124.2750   103.3830   -47.8290 ha         1 P83       0.130000
     26 H7         124.6820   101.1880   -46.7880 ha         1 P83       0.127000
     27 H8         125.0400   100.9750   -44.3590 ha         1 P83       0.133000
     28 H911       124.8480   102.4500   -40.7760 h1         1 P83       0.055200
     29 H912       124.7920   101.2840   -42.0730 h1         1 P83       0.055200
     30 H921       127.2340   101.6840   -42.5500 hc         1 P83       0.046367
     31 H922       127.2880   102.8710   -41.2430 hc         1 P83       0.046367
     32 H923       126.9760   101.1730   -40.8830 hc         1 P83       0.046367
     33 H32        122.5600   108.8430   -41.4270 hn         1 P83       0.355800
     34 H331       124.2620   111.0960   -40.6650 h1         1 P83       0.028700
     35 H332       123.0920   111.1860   -41.9830 h1         1 P83       0.028700
     36 H333       122.5450   110.9130   -40.3220 h1         1 P83       0.028700
@<TRIPOS>BOND
     1     1     2 ar  
     2     1    13 ar  
     3     1    19 1   
     4     2     3 ar  
     5     2    20 1   
     6     3     4 ar  
     7     3    16 1   
     8     4     5 ar  
     9     4    21 1   
    10     5     6 1   
    11     5    13 ar  
    12     6     7 ar  
    13     6    11 ar  
    14     7     8 ar  
    15     7    24 1   
    16     8     9 ar  
    17     8    25 1   
    18     9    10 ar  
    19     9    26 1   
    20    10    11 ar  
    21    10    27 1   
    22    11    12 1   
    23    12    13 1   
    24    12    14 1   
    25    14    15 1   
    26    14    28 1   
    27    14    29 1   
    28    15    30 1   
    29    15    31 1   
    30    15    32 1   
    31    16    17 1   
    32    16    22 1   
    33    16    23 1   
    34    17    18 1   
    35    17    33 1   
    36    18    34 1   
    37    18    35 1   
    38    18    36 1   
@<TRIPOS>SUBSTRUCTURE
     1 P83         1 TEMP              0 ****  ****    0 ROOT
