@<TRIPOS>MOLECULE
P84
   39    40     1     0     0
SMALL
No Charge or Current Charge


@<TRIPOS>ATOM
      1 C1           0.4500     0.0910     0.6900 ca         1 P84      -0.122300
      2 C2          -0.1530    -1.1850     0.6140 ca         1 P84       0.214100
      3 C3          -1.5380    -1.2950     0.3620 ca         1 P84       0.084000
      4 C4           1.9460     0.2500     0.9550 c3         1 P84       0.233100
      5 N5           2.7840     0.1330    -0.2680 n3         1 P84      -0.724600
      6 C6          -2.3230    -0.1430     0.1920 ca         1 P84      -0.006000
      7 C8          -0.3510     1.2420     0.5260 ca         1 P84      -0.029000
      8 C9           2.5110     1.2000    -1.2680 c3         1 P84       0.156100
      9 C10         -1.7270     1.1240     0.2760 ca         1 P84       0.147000
     10 I15         -2.4820    -3.2520     0.2390 i          1 P84      -0.312000
     11 O16          0.5930    -2.3210     0.7920 oh         1 P84      -0.507100
     12 I17         -2.9330     2.9050     0.0170 i          1 P84      -0.304000
     13 C11          6.4200     0.7550     1.0110 c6         1 P84       0.167300
     14 C12          6.4930    -0.9160    -0.7980 c6         1 P84       0.167300
     15 C13          5.0350    -0.5960    -1.1970 c6         1 P84      -0.090400
     16 C14          4.2320    -0.1090     0.0370 c6         1 P84       0.192500
     17 N6           7.1590     0.2650    -0.1850 n3         1 P84      -0.716600
     18 C15          4.9540     1.1110     0.6710 c6         1 P84      -0.090400
     19 C16          8.5880     0.0190     0.1010 c3         1 P84       0.153100
     20 H41C         2.1170     1.2230     1.4350 h1         1 P84       0.040700
     21 H42C         2.2450    -0.5100     1.6890 h1         1 P84       0.040700
     22 H8           0.0950     2.2320     0.5860 ha         1 P84       0.129000
     23 H16         -0.0040    -3.0930     0.6830 ho         1 P84       0.477000
     24 H6          -3.3870    -0.2320    -0.0020 ha         1 P84       0.139000
     25 H91C         2.7700     2.1900    -0.8700 h1         1 P84       0.030700
     26 H92C         3.0750     1.0410    -2.1940 h1         1 P84       0.030700
     27 H93C         1.4490     1.2140    -1.5440 h1         1 P84       0.030700
     28 H141         4.2860    -0.9270     0.7730 h1         1 P84       0.054700
     29 H111         6.4290    -0.0110     1.8020 h1         1 P84       0.029950
     30 H112         6.9120     1.6480     1.4220 h1         1 P84       0.029950
     31 H131         5.0490     0.1670    -1.9850 hc         1 P84       0.051200
     32 H132         4.5630    -1.4910    -1.6230 hc         1 P84       0.051200
     33 H121         6.4970    -1.7640    -0.0950 h1         1 P84       0.029950
     34 H122         7.0410    -1.2380    -1.6960 h1         1 P84       0.029950
     35 H151         4.4420     1.4320     1.5870 hc         1 P84       0.051200
     36 H152         4.9420     1.9660    -0.0170 hc         1 P84       0.051200
     37 H161         8.7080    -0.7810     0.8440 h1         1 P84       0.029700
     38 H162         9.1210    -0.2780    -0.8130 h1         1 P84       0.029700
     39 H163         9.0680     0.9260     0.4910 h1         1 P84       0.029700
@<TRIPOS>BOND
     1     1     2 ar  
     2     1     4 1   
     3     1     7 ar  
     4     2     3 ar  
     5     2    11 1   
     6     3     6 ar  
     7     3    10 1   
     8     4     5 1   
     9     4    20 1   
    10     4    21 1   
    11     5     8 1   
    12     5    16 1   
    13     6     9 ar  
    14     6    24 1   
    15     7     9 ar  
    16     7    22 1   
    17     8    25 1   
    18     8    26 1   
    19     8    27 1   
    20     9    12 1   
    21    11    23 1   
    22    13    17 1   
    23    13    18 1   
    24    13    29 1   
    25    13    30 1   
    26    14    15 1   
    27    14    17 1   
    28    14    33 1   
    29    14    34 1   
    30    15    16 1   
    31    15    31 1   
    32    15    32 1   
    33    16    18 1   
    34    16    28 1   
    35    17    19 1   
    36    18    35 1   
    37    18    36 1   
    38    19    37 1   
    39    19    38 1   
    40    19    39 1   
@<TRIPOS>SUBSTRUCTURE
     1 P84         1 TEMP              0 ****  ****    0 ROOT
