@<TRIPOS>MOLECULE
P84
   39    40     1     0     0
SMALL
bcc


@<TRIPOS>ATOM
      1 C1           0.4960     0.2420     0.6720 ca         1 P84      -0.122300
      2 C2           0.0880    -1.0940     0.5180 ca         1 P84       0.214100
      3 C3          -1.2600    -1.3550     0.2690 ca         1 P84      -0.053100
      4 C4           1.9470     0.5580     0.9240 c3         1 P84       0.233100
      5 N5           2.7560     0.3120    -0.2550 n3         1 P84      -0.724600
      6 C6          -2.1960    -0.3320     0.1690 ca         1 P84      -0.024000
      7 C8          -0.4380     1.2580     0.5760 ca         1 P84      -0.047000
      8 C9           2.5720     1.3490    -1.2460 c3         1 P84       0.156100
      9 C10         -1.7740     0.9740     0.3260 ca         1 P84       0.009900
     10 I15         -1.9330    -3.3360     0.0250 i          1 P84      -0.174900
     11 O16          1.0330    -2.0300     0.6370 oh         1 P84      -0.468100
     12 I17         -3.1670     2.5420     0.1770 i          1 P84      -0.166900
     13 C11          6.3770     0.6760     0.9810 c6         1 P84       0.167300
     14 C12          6.2990    -1.0070    -0.7170 c6         1 P84       0.167300
     15 C13          4.8860    -0.6090    -1.1210 c6         1 P84      -0.090400
     16 C14          4.1410    -0.0110     0.0660 c6         1 P84       0.192500
     17 N6           7.0350     0.1250    -0.1880 n3         1 P84      -0.716600
     18 C15          4.9650     1.1390     0.6520 c6         1 P84      -0.090400
     19 C16          8.4080    -0.2240     0.0960 c3         1 P84       0.153100
     20 H41C         2.0180     1.5990     1.2760 h1         1 P84       0.040700
     21 H42C         2.3170    -0.0660     1.7410 h1         1 P84       0.040700
     22 H8          -0.1030     2.2800     0.7030 ha         1 P84       0.147000
     23 H16          0.6700    -2.9240     0.6070 ho         1 P84       0.438000
     24 H6          -3.2340    -0.5630    -0.0280 ha         1 P84       0.157000
     25 H91C         2.8750     2.3510    -0.9100 h1         1 P84       0.030700
     26 H92C         3.1240     1.1200    -2.1570 h1         1 P84       0.030700
     27 H93C         1.5180     1.4090    -1.5260 h1         1 P84       0.030700
     28 H141         4.0900    -0.7990     0.8290 h1         1 P84       0.054700
     29 H111         6.3350    -0.0620     1.8030 h1         1 P84       0.029950
     30 H112         6.9670     1.5200     1.3490 h1         1 P84       0.029950
     31 H131         4.9500     0.1080    -1.9430 hc         1 P84       0.051200
     32 H132         4.3490    -1.4850    -1.4920 hc         1 P84       0.051200
     33 H121         6.2520    -1.8340     0.0170 h1         1 P84       0.029950
     34 H122         6.8340    -1.3950    -1.5880 h1         1 P84       0.029950
     35 H151         4.4970     1.5260     1.5610 hc         1 P84       0.051200
     36 H152         5.0170     1.9680    -0.0620 hc         1 P84       0.051200
     37 H161         8.5100    -1.0070     0.8650 h1         1 P84       0.029700
     38 H162         8.8990    -0.5840    -0.8100 h1         1 P84       0.029700
     39 H163         8.9550     0.6540     0.4440 h1         1 P84       0.029700
@<TRIPOS>BOND
     1     1     2 ar  
     2     1     4 1   
     3     1     7 ar  
     4     2     3 ar  
     5     2    11 1   
     6     3     6 ar  
     7     3    10 1   
     8     4     5 1   
     9     4    20 1   
    10     4    21 1   
    11     5     8 1   
    12     5    16 1   
    13     6     9 ar  
    14     6    24 1   
    15     7     9 ar  
    16     7    22 1   
    17     8    25 1   
    18     8    26 1   
    19     8    27 1   
    20     9    12 1   
    21    11    23 1   
    22    13    17 1   
    23    13    18 1   
    24    13    29 1   
    25    13    30 1   
    26    14    15 1   
    27    14    17 1   
    28    14    33 1   
    29    14    34 1   
    30    15    16 1   
    31    15    31 1   
    32    15    32 1   
    33    16    18 1   
    34    16    28 1   
    35    17    19 1   
    36    18    35 1   
    37    18    36 1   
    38    19    37 1   
    39    19    38 1   
    40    19    39 1   
@<TRIPOS>SUBSTRUCTURE
     1 P84         1 TEMP              0 ****  ****    0 ROOT
