@<TRIPOS>MOLECULE
P85
   56    59     1     0     0
SMALL
No Charge or Current Charge


@<TRIPOS>ATOM
      1 F55         -7.1160    -3.4750     0.0790 f          1 P85      -0.179000
      2 C26         -6.5940    -2.2300     0.1140 ca         1 P85       0.176000
      3 C27         -6.5860    -1.5100     1.3180 ca         1 P85      -0.155500
      4 C28         -6.0420    -0.2140     1.3560 ca         1 P85      -0.071000
      5 C25         -6.0610    -1.6640    -1.0540 ca         1 P85      -0.155500
      6 C24         -5.5170    -0.3680    -1.0190 ca         1 P85      -0.071000
      7 C23         -5.5060     0.3630     0.1860 ca         1 P85      -0.133300
      8 C22         -4.9110     1.7630     0.2250 c3         1 P85       0.149300
      9 N21         -3.4730     1.7170     0.4830 ns         1 P85      -0.504900
     10 C19         -2.4990     1.7330    -0.4900 c          1 P85       0.603100
     11 O20         -2.7670     1.8270    -1.6790 o          1 P85      -0.605100
     12 C16         -1.0460     1.6260     0.0160 c6         1 P85      -0.140700
     13 C17         -0.3300     0.3300    -0.4310 c6         1 P85      -0.067900
     14 C18          1.1100     0.2730     0.1320 c6         1 P85       0.168300
     15 N13          1.9130     1.4850    -0.2310 n3         1 P85      -0.724600
     16 C14          1.2450     2.7250     0.2790 c6         1 P85       0.168300
     17 C15         -0.1950     2.8860    -0.2690 c6         1 P85      -0.067900
     18 C11          3.3450     1.3520     0.1840 c3         1 P85       0.233800
     19 C12          4.2200     2.5840    -0.1480 c3         1 P85      -0.093100
     20 C1           4.0270     0.1080    -0.4280 ca         1 P85      -0.079300
     21 C2           3.7940    -0.1620    -1.7970 ca         1 P85      -0.086000
     22 C3           4.3640    -1.2770    -2.4250 ca         1 P85      -0.109000
     23 C4           5.1900    -2.1420    -1.6980 ca         1 P85      -0.100000
     24 C5           5.4600    -1.8860    -0.3420 ca         1 P85      -0.040000
     25 C6           4.8920    -0.7570     0.3070 ca         1 P85      -0.025000
     26 C10          6.3090    -2.7640     0.3590 ca         1 P85      -0.096000
     27 C9           6.6130    -2.5300     1.7070 ca         1 P85      -0.111000
     28 C8           6.0740    -1.4120     2.3570 ca         1 P85      -0.108000
     29 C7           5.2240    -0.5310     1.6670 ca         1 P85      -0.107000
     30 H271        -6.9990    -1.9560     2.2190 ha         1 P85       0.133000
     31 H281        -6.0350     0.3410     2.2930 ha         1 P85       0.124000
     32 H251        -6.0700    -2.2290    -1.9830 ha         1 P85       0.133000
     33 H241        -5.1010     0.0670    -1.9260 ha         1 P85       0.124000
     34 H221        -5.1040     2.2790    -0.7260 h1         1 P85       0.064700
     35 H222        -5.3920     2.3490     1.0190 h1         1 P85       0.064700
     36 H211        -3.1590     1.6320     1.4420 hn         1 P85       0.312500
     37 H161        -1.1200     1.5610     1.1110 hc         1 P85       0.045700
     38 H172        -0.8950    -0.5510    -0.0970 hc         1 P85       0.059450
     39 H171        -0.2920     0.2840    -1.5280 hc         1 P85       0.059450
     40 H182         1.0610     0.1700     1.2270 h1         1 P85       0.034200
     41 H181         1.5800    -0.6440    -0.2500 h1         1 P85       0.034200
     42 H141         1.2130     2.7120     1.3790 h1         1 P85       0.034200
     43 H142         1.8030     3.6240    -0.0160 h1         1 P85       0.034200
     44 H151        -0.1500     3.0670    -1.3520 hc         1 P85       0.059450
     45 H152        -0.6650     3.7730     0.1780 hc         1 P85       0.059450
     46 H111         3.3350     1.2580     1.2750 h1         1 P85       0.026700
     47 H123         4.1380     2.8450    -1.2100 hc         1 P85       0.042700
     48 H122         3.9340     3.4540     0.4540 hc         1 P85       0.042700
     49 H121         5.2730     2.3730     0.0720 hc         1 P85       0.042700
     50 H21          3.1530     0.4980    -2.3770 ha         1 P85       0.135000
     51 H31          4.1640    -1.4710    -3.4760 ha         1 P85       0.114000
     52 H41          5.6270    -3.0070    -2.1920 ha         1 P85       0.113000
     53 H101         6.7380    -3.6290    -0.1420 ha         1 P85       0.112000
     54 H91          7.2710    -3.2100     2.2440 ha         1 P85       0.113000
     55 H81          6.3170    -1.2240     3.4010 ha         1 P85       0.110000
     56 H71          4.8480     0.3250     2.2150 ha         1 P85       0.110000
@<TRIPOS>BOND
     1     1     2 1   
     2     2     3 ar  
     3     2     5 ar  
     4     3     4 ar  
     5     3    30 1   
     6     4     7 ar  
     7     4    31 1   
     8     5     6 ar  
     9     5    32 1   
    10     6     7 ar  
    11     6    33 1   
    12     7     8 1   
    13     8     9 1   
    14     8    34 1   
    15     8    35 1   
    16     9    10 1   
    17     9    36 1   
    18    10    11 2   
    19    10    12 1   
    20    12    13 1   
    21    12    17 1   
    22    12    37 1   
    23    13    14 1   
    24    13    38 1   
    25    13    39 1   
    26    14    15 1   
    27    14    40 1   
    28    14    41 1   
    29    15    16 1   
    30    15    18 1   
    31    16    17 1   
    32    16    42 1   
    33    16    43 1   
    34    17    44 1   
    35    17    45 1   
    36    18    19 1   
    37    18    20 1   
    38    18    46 1   
    39    19    47 1   
    40    19    48 1   
    41    19    49 1   
    42    20    21 ar  
    43    20    25 ar  
    44    21    22 ar  
    45    21    50 1   
    46    22    23 ar  
    47    22    51 1   
    48    23    24 ar  
    49    23    52 1   
    50    24    25 ar  
    51    24    26 ar  
    52    25    29 ar  
    53    26    27 ar  
    54    26    53 1   
    55    27    28 ar  
    56    27    54 1   
    57    28    29 ar  
    58    28    55 1   
    59    29    56 1   
@<TRIPOS>SUBSTRUCTURE
     1 P85         1 TEMP              0 ****  ****    0 ROOT
