@<TRIPOS>MOLECULE
P85
   56    59     1     0     0
SMALL
bcc


@<TRIPOS>ATOM
      1 F55         -7.3120    -3.2670     0.2580 f          1 P85      -0.143900
      2 C26         -6.7260    -2.0600     0.1820 ca         1 P85       0.140900
      3 C27         -7.1270    -1.0650     1.0490 ca         1 P85      -0.173500
      4 C28         -6.5090     0.1770     0.9590 ca         1 P85      -0.089000
      5 C25         -5.7400    -1.8560    -0.7650 ca         1 P85      -0.173500
      6 C24         -5.1380    -0.6090    -0.8390 ca         1 P85      -0.089000
      7 C23         -5.5130     0.4220     0.0210 ca         1 P85      -0.133300
      8 C22         -4.8390     1.7690    -0.0500 c3         1 P85       0.149300
      9 N21         -3.4590     1.7270     0.3830 ns         1 P85      -0.571900
     10 C19         -2.4080     1.6520    -0.4520 c          1 P85       0.670100
     11 O20         -2.5230     1.6510    -1.6720 o          1 P85      -0.605100
     12 C16         -1.0510     1.5700     0.2150 c6         1 P85      -0.140700
     13 C17         -0.3600     0.2520    -0.1320 c6         1 P85      -0.067900
     14 C18          1.0470     0.2190     0.4390 c6         1 P85       0.168300
     15 N13          1.8510     1.3330    -0.0370 n3         1 P85      -0.724600
     16 C14          1.2450     2.5940     0.3530 c6         1 P85       0.168300
     17 C15         -0.1570     2.7280    -0.2220 c6         1 P85      -0.067900
     18 C11          3.2390     1.1740     0.3830 c3         1 P85       0.233800
     19 C12          4.0860     2.4280     0.1590 c3         1 P85      -0.093100
     20 C1           3.8930     0.0290    -0.3740 ca         1 P85      -0.079300
     21 C2           3.5330    -0.2140    -1.6760 ca         1 P85      -0.104000
     22 C3           4.1590    -1.2160    -2.4430 ca         1 P85      -0.127000
     23 C4           5.1550    -1.9770    -1.9010 ca         1 P85      -0.118000
     24 C5           5.5650    -1.7620    -0.5660 ca         1 P85      -0.040000
     25 C6           4.9340    -0.7500     0.2130 ca         1 P85      -0.025000
     26 C10          6.6010    -2.5400     0.0050 ca         1 P85      -0.114000
     27 C9           7.0100    -2.3330     1.2930 ca         1 P85      -0.129000
     28 C8           6.3920    -1.3320     2.0680 ca         1 P85      -0.126000
     29 C7           5.3870    -0.5650     1.5440 ca         1 P85      -0.125000
     30 H271        -7.9010    -1.2480     1.7820 ha         1 P85       0.151000
     31 H281        -6.8150     0.9650     1.6360 ha         1 P85       0.142000
     32 H251        -5.4490    -2.6540    -1.4360 ha         1 P85       0.151000
     33 H241        -4.3690    -0.4410    -1.5830 ha         1 P85       0.142000
     34 H221        -4.8660     2.1570    -1.0670 h1         1 P85       0.064700
     35 H222        -5.3720     2.4820     0.5800 h1         1 P85       0.064700
     36 H211        -3.2900     1.6720     1.3740 hn         1 P85       0.312500
     37 H161        -1.1690     1.6190     1.3030 hc         1 P85       0.045700
     38 H172        -0.9250    -0.5940     0.2660 hc         1 P85       0.059450
     39 H171        -0.3140     0.1320    -1.2170 hc         1 P85       0.059450
     40 H182         0.9960     0.2140     1.5430 h1         1 P85       0.034200
     41 H181         1.5220    -0.7180     0.1460 h1         1 P85       0.034200
     42 H141         1.2060     2.7050     1.4520 h1         1 P85       0.034200
     43 H142         1.8410     3.4230    -0.0260 h1         1 P85       0.034200
     44 H151        -0.0950     2.7520    -1.3120 hc         1 P85       0.059450
     45 H152        -0.5810     3.6820     0.1010 hc         1 P85       0.059450
     46 H111         3.2630     0.9530     1.4630 h1         1 P85       0.026700
     47 H123         3.9980     2.7780    -0.8710 hc         1 P85       0.042700
     48 H122         3.8100     3.2410     0.8310 hc         1 P85       0.042700
     49 H121         5.1360     2.2030     0.3440 hc         1 P85       0.042700
     50 H21          2.7380     0.3750    -2.1140 ha         1 P85       0.153000
     51 H31          3.8430    -1.3770    -3.4660 ha         1 P85       0.132000
     52 H41          5.6420    -2.7480    -2.4850 ha         1 P85       0.131000
     53 H101         7.0680    -3.3050    -0.6030 ha         1 P85       0.130000
     54 H91          7.8040    -2.9320     1.7180 ha         1 P85       0.131000
     55 H81          6.7150    -1.1690     3.0880 ha         1 P85       0.128000
     56 H71          4.9380     0.1930     2.1710 ha         1 P85       0.128000
@<TRIPOS>BOND
     1     1     2 1   
     2     2     3 ar  
     3     2     5 ar  
     4     3     4 ar  
     5     3    30 1   
     6     4     7 ar  
     7     4    31 1   
     8     5     6 ar  
     9     5    32 1   
    10     6     7 ar  
    11     6    33 1   
    12     7     8 1   
    13     8     9 1   
    14     8    34 1   
    15     8    35 1   
    16     9    10 1   
    17     9    36 1   
    18    10    11 2   
    19    10    12 1   
    20    12    13 1   
    21    12    17 1   
    22    12    37 1   
    23    13    14 1   
    24    13    38 1   
    25    13    39 1   
    26    14    15 1   
    27    14    40 1   
    28    14    41 1   
    29    15    16 1   
    30    15    18 1   
    31    16    17 1   
    32    16    42 1   
    33    16    43 1   
    34    17    44 1   
    35    17    45 1   
    36    18    19 1   
    37    18    20 1   
    38    18    46 1   
    39    19    47 1   
    40    19    48 1   
    41    19    49 1   
    42    20    21 ar  
    43    20    25 ar  
    44    21    22 ar  
    45    21    50 1   
    46    22    23 ar  
    47    22    51 1   
    48    23    24 ar  
    49    23    52 1   
    50    24    25 ar  
    51    24    26 ar  
    52    25    29 ar  
    53    26    27 ar  
    54    26    53 1   
    55    27    28 ar  
    56    27    54 1   
    57    28    29 ar  
    58    28    55 1   
    59    29    56 1   
@<TRIPOS>SUBSTRUCTURE
     1 P85         1 TEMP              0 ****  ****    0 ROOT
