@<TRIPOS>MOLECULE
P86
   45    46     1     0     0
SMALL
abcg2


@<TRIPOS>ATOM
      1 C01         -2.4750     0.8430     0.7670 ca         1 P86       0.136000
      2 C1          -0.2360     0.1430     1.3040 ca         1 P86      -0.210300
      3 N1           2.2080    -0.0450     1.3220 n3         1 P86      -0.746600
      4 O1           0.6380    -1.7970     0.2260 oh         1 P86      -0.553100
      5 C02         -2.6280    -0.2290    -0.0980 ca         1 P86      -0.002000
      6 C2           1.0300     0.3000     2.1100 c3         1 P86       0.210100
      7 N2           5.9590    -0.2830    -0.6800 n3         1 P86      -0.754600
      8 C03          3.3890    -0.2670     2.1470 c6         1 P86       0.161300
      9 C3          -1.2860     1.0320     1.4590 ca         1 P86      -0.019000
     10 C4          -1.5670    -1.1070    -0.2660 ca         1 P86       0.122000
     11 C7          -0.3630    -0.9440     0.4190 ca         1 P86       0.225100
     12 C8           4.5630    -0.7610     1.3150 c6         1 P86      -0.084400
     13 C10          4.9060     0.2210     0.1940 c6         1 P86       0.208500
     14 C11          6.4120     0.6640    -1.6940 c3         1 P86       0.181300
     15 C12          6.5650     0.0070    -3.0570 c3         1 P86      -0.109600
     16 C13          7.0790    -0.9460    -0.0310 c3         1 P86       0.181300
     17 C14          7.9060    -0.1020     0.9390 c3         1 P86      -0.109600
     18 C15          3.6250     0.4660    -0.6070 c6         1 P86      -0.084400
     19 C16          2.4870     0.9380     0.2790 c6         1 P86       0.161300
     20 I1          -4.0590     2.2010     1.0240 i          1 P86      -0.311000
     21 I2          -1.7600    -2.7230    -1.5890 i          1 P86      -0.289000
     22 H02         -3.5500    -0.3780    -0.6420 ha         1 P86       0.138000
     23 H3          -1.1660     1.8690     2.1340 ha         1 P86       0.123000
     24 H21C         1.0910     1.3170     2.5200 h1         1 P86       0.050200
     25 H22C         0.9920    -0.3830     2.9640 h1         1 P86       0.050200
     26 H031         3.6710     0.6580     2.6720 h1         1 P86       0.042200
     27 H032         3.1470    -1.0090     2.9100 h1         1 P86       0.042200
     28 H161         1.5880     1.0860    -0.3230 h1         1 P86       0.042200
     29 H162         2.7300     1.9130     0.7290 h1         1 P86       0.042200
     30 H1           1.4620    -1.3550     0.6070 ho         1 P86       0.529000
     31 H10          5.1960     1.1760     0.6710 h1         1 P86       0.017700
     32 H111         5.7040     1.4880    -1.7770 h1         1 P86       0.038950
     33 H112         7.3630     1.1320    -1.4080 h1         1 P86       0.038950
     34 H131         6.7210    -1.8400     0.4840 h1         1 P86       0.038950
     35 H132         7.7340    -1.3190    -0.8230 h1         1 P86       0.038950
     36 H81C         5.4030    -0.9080     1.9950 hc         1 P86       0.059950
     37 H82C         4.3200    -1.7380     0.8850 hc         1 P86       0.059950
     38 H151         3.7740     1.2120    -1.3890 hc         1 P86       0.059950
     39 H152         3.3370    -0.4660    -1.1020 hc         1 P86       0.059950
     40 H121         5.6070    -0.3700    -3.4150 hc         1 P86       0.036033
     41 H122         6.9470     0.7190    -3.7910 hc         1 P86       0.036033
     42 H123         7.2620    -0.8320    -3.0210 hc         1 P86       0.036033
     43 H141         8.2800     0.8090     0.4710 hc         1 P86       0.036033
     44 H142         7.3350     0.1930     1.8210 hc         1 P86       0.036033
     45 H143         8.7710    -0.6700     1.2860 hc         1 P86       0.036033
@<TRIPOS>BOND
     1     1     5 ar  
     2     1     9 ar  
     3     1    20 1   
     4     2     6 1   
     5     2     9 ar  
     6     2    11 ar  
     7     3     6 1   
     8     3     8 1   
     9     3    19 1   
    10     4    11 1   
    11     4    30 1   
    12     5    10 ar  
    13     5    22 1   
    14     6    24 1   
    15     6    25 1   
    16     7    13 1   
    17     7    14 1   
    18     7    16 1   
    19     8    12 1   
    20     8    26 1   
    21     8    27 1   
    22     9    23 1   
    23    10    11 ar  
    24    10    21 1   
    25    12    13 1   
    26    12    36 1   
    27    12    37 1   
    28    13    18 1   
    29    13    31 1   
    30    14    15 1   
    31    14    32 1   
    32    14    33 1   
    33    15    40 1   
    34    15    41 1   
    35    15    42 1   
    36    16    17 1   
    37    16    34 1   
    38    16    35 1   
    39    17    43 1   
    40    17    44 1   
    41    17    45 1   
    42    18    19 1   
    43    18    38 1   
    44    18    39 1   
    45    19    28 1   
    46    19    29 1   
@<TRIPOS>SUBSTRUCTURE
     1 P86         1 TEMP              0 ****  ****    0 ROOT
