@<TRIPOS>MOLECULE
P86
   45    46     1     0     0
SMALL
No Charge or Current Charge


@<TRIPOS>ATOM
      1 C01         -2.6030     1.0220     1.0280 ca         1 P86       0.136000
      2 C1          -0.3560     0.1330     1.3950 ca         1 P86      -0.210300
      3 N1           2.1350    -0.1690     1.3210 n3         1 P86      -0.746600
      4 O1           0.3900    -1.7320     0.1120 oh         1 P86      -0.553100
      5 C02         -2.8450     0.0390     0.0560 ca         1 P86      -0.002000
      6 C2           0.9640     0.1770     2.1650 c3         1 P86       0.210100
      7 N2           5.9710    -0.4330    -0.7810 n3         1 P86      -0.754600
      8 C03          3.3400    -0.4660     2.1320 c6         1 P86       0.161300
      9 C3          -1.3670     1.0690     1.6970 ca         1 P86      -0.019000
     10 C4          -1.8480    -0.9000    -0.2540 ca         1 P86       0.122000
     11 C7          -0.6040    -0.8520     0.4150 ca         1 P86       0.225100
     12 C8           4.5050    -0.9560     1.2460 c6         1 P86      -0.084400
     13 C10          4.8760     0.0740     0.1350 c6         1 P86       0.208500
     14 C11          6.2960     0.5010    -1.9070 c3         1 P86       0.181300
     15 C12          7.3260    -0.0190    -2.9330 c3         1 P86      -0.109600
     16 C13          7.1920    -0.9320    -0.0680 c3         1 P86       0.181300
     17 C14          7.9700     0.1330     0.7360 c3         1 P86      -0.109600
     18 C15          3.5710     0.4390    -0.6360 c6         1 P86      -0.084400
     19 C16          2.4370     0.8810     0.3130 c6         1 P86       0.161300
     20 I1          -4.1420     2.4700     1.5060 i          1 P86      -0.311000
     21 I2          -2.2490    -2.4040    -1.7780 i          1 P86      -0.289000
     22 H02         -3.8000     0.0070    -0.4580 ha         1 P86       0.138000
     23 H3          -1.2020     1.8320     2.4540 ha         1 P86       0.123000
     24 H21C         1.1010     1.1730     2.6110 h1         1 P86       0.050200
     25 H22C         0.8820    -0.5340     2.9980 h1         1 P86       0.050200
     26 H031         3.6590     0.4300     2.6860 h1         1 P86       0.042200
     27 H032         3.1170    -1.2440     2.8770 h1         1 P86       0.042200
     28 H161         1.5460     1.1060    -0.2920 h1         1 P86       0.042200
     29 H162         2.7300     1.8170     0.8120 h1         1 P86       0.042200
     30 H1           1.2000    -1.3180     0.5330 ho         1 P86       0.529000
     31 H10          5.2230     0.9900     0.6350 h1         1 P86       0.017700
     32 H111         5.3940     0.7070    -2.4940 h1         1 P86       0.038950
     33 H112         6.6470     1.4660    -1.5140 h1         1 P86       0.038950
     34 H131         6.9310    -1.7540     0.6090 h1         1 P86       0.038950
     35 H132         7.8870    -1.3870    -0.7840 h1         1 P86       0.038950
     36 H81C         5.3570    -1.1420     1.9100 hc         1 P86       0.059950
     37 H82C         4.2380    -1.9180     0.7900 hc         1 P86       0.059950
     38 H151         3.7440     1.2680    -1.3320 hc         1 P86       0.059950
     39 H152         3.2360    -0.4190    -1.2340 hc         1 P86       0.059950
     40 H121         7.0520    -1.0200    -3.2850 hc         1 P86       0.036033
     41 H122         7.3590     0.6500    -3.8000 hc         1 P86       0.036033
     42 H123         8.3350    -0.0560    -2.5060 hc         1 P86       0.036033
     43 H141         8.3200     0.9430     0.0860 hc         1 P86       0.036033
     44 H142         7.3490     0.5650     1.5290 hc         1 P86       0.036033
     45 H143         8.8470    -0.3230     1.2080 hc         1 P86       0.036033
@<TRIPOS>BOND
     1     1     5 ar  
     2     1     9 ar  
     3     1    20 1   
     4     2     6 1   
     5     2     9 ar  
     6     2    11 ar  
     7     3     6 1   
     8     3     8 1   
     9     3    19 1   
    10     4    11 1   
    11     4    30 1   
    12     5    10 ar  
    13     5    22 1   
    14     6    24 1   
    15     6    25 1   
    16     7    13 1   
    17     7    14 1   
    18     7    16 1   
    19     8    12 1   
    20     8    26 1   
    21     8    27 1   
    22     9    23 1   
    23    10    11 ar  
    24    10    21 1   
    25    12    13 1   
    26    12    36 1   
    27    12    37 1   
    28    13    18 1   
    29    13    31 1   
    30    14    15 1   
    31    14    32 1   
    32    14    33 1   
    33    15    40 1   
    34    15    41 1   
    35    15    42 1   
    36    16    17 1   
    37    16    34 1   
    38    16    35 1   
    39    17    43 1   
    40    17    44 1   
    41    17    45 1   
    42    18    19 1   
    43    18    38 1   
    44    18    39 1   
    45    19    28 1   
    46    19    29 1   
@<TRIPOS>SUBSTRUCTURE
     1 P86         1 TEMP              0 ****  ****    0 ROOT
