@<TRIPOS>MOLECULE
P87
   33    34     1     0     0
SMALL
No Charge or Current Charge


@<TRIPOS>ATOM
      1 O1           1.3400    -2.0280     0.4120 o          1 P87      -0.610100
      2 C6           1.3500    -0.8370     0.1220 c          1 P87       0.604100
      3 N            2.5720    -0.1440     0.0110 n          1 P87      -0.421800
      4 C10          3.8820    -0.8010     0.2070 c5         1 P87       0.102500
      5 C9           4.8520     0.2540    -0.3840 c5         1 P87      -0.094900
      6 C8           4.1720     1.5780     0.0430 c5         1 P87      -0.094900
      7 C7           2.6870     1.2980    -0.3040 c5         1 P87       0.102500
      8 C5           0.0440    -0.0560    -0.1290 c3         1 P87      -0.154400
      9 C4          -1.2590    -0.8940    -0.1010 c3         1 P87      -0.057400
     10 C1          -2.5400    -0.0790    -0.4070 c5         1 P87      -0.101700
     11 C2          -2.9050     1.0100     0.6270 c5         1 P87       0.145600
     12 O           -4.2320     1.3950     0.2230 os         1 P87      -0.447000
     13 C3          -4.9360     0.2090    -0.2190 c5         1 P87       0.146600
     14 C           -3.8540    -0.9030    -0.3590 c5         1 P87      -0.108400
     15 H1           4.0710    -0.9710     1.2760 h1         1 P87       0.049950
     16 H2           3.9520    -1.7620    -0.3190 h1         1 P87       0.049950
     17 H3           5.8710     0.1520     0.0060 hc         1 P87       0.054450
     18 H4           4.9070     0.1710    -1.4760 hc         1 P87       0.054450
     19 H5           4.2980     1.7580     1.1170 hc         1 P87       0.054450
     20 H6           4.5680     2.4520    -0.4860 hc         1 P87       0.054450
     21 H7           2.4810     1.4780    -1.3680 h1         1 P87       0.049950
     22 H8           2.0090     1.9200     0.2950 h1         1 P87       0.049950
     23 H9           0.0080     0.7670     0.5930 hc         1 P87       0.055700
     24 H10          0.1500     0.4910    -1.0730 hc         1 P87       0.055700
     25 H11         -1.1680    -1.7070    -0.8320 hc         1 P87       0.058700
     26 H12         -1.3510    -1.3730     0.8830 hc         1 P87       0.058700
     27 H13         -2.4070     0.3720    -1.3980 hc         1 P87       0.054700
     28 H14         -2.9370     0.6140     1.6520 h1         1 P87       0.044200
     29 H15         -2.2350     1.8800     0.5970 h1         1 P87       0.044200
     30 H16         -5.7080    -0.0610     0.5150 h1         1 P87       0.046200
     31 H17         -5.4250     0.4280    -1.1770 h1         1 P87       0.046200
     32 H18         -4.0000    -1.5170    -1.2550 hc         1 P87       0.053200
     33 H19         -3.8790    -1.5780     0.5050 hc         1 P87       0.053200
@<TRIPOS>BOND
     1     1     2 2   
     2     2     3 1   
     3     2     8 1   
     4     3     4 1   
     5     3     7 1   
     6     4     5 1   
     7     4    15 1   
     8     4    16 1   
     9     5     6 1   
    10     5    17 1   
    11     5    18 1   
    12     6     7 1   
    13     6    19 1   
    14     6    20 1   
    15     7    21 1   
    16     7    22 1   
    17     8     9 1   
    18     8    23 1   
    19     8    24 1   
    20     9    10 1   
    21     9    25 1   
    22     9    26 1   
    23    10    11 1   
    24    10    14 1   
    25    10    27 1   
    26    11    12 1   
    27    11    28 1   
    28    11    29 1   
    29    12    13 1   
    30    13    14 1   
    31    13    30 1   
    32    13    31 1   
    33    14    32 1   
    34    14    33 1   
@<TRIPOS>SUBSTRUCTURE
     1 P87         1 TEMP              0 ****  ****    0 ROOT
