@<TRIPOS>MOLECULE
P87
   33    34     1     0     0
SMALL
bcc


@<TRIPOS>ATOM
      1 O1           1.2020    -1.9420     0.5510 o          1 P87      -0.610100
      2 C6           1.2640    -0.7750     0.1780 c          1 P87       0.671100
      3 N            2.4380    -0.1340     0.0690 n          1 P87      -0.488800
      4 C10          3.7040    -0.8020     0.3520 c5         1 P87       0.102500
      5 C9           4.7460     0.1740    -0.1840 c5         1 P87      -0.094900
      6 C8           4.0790     1.5320     0.0000 c5         1 P87      -0.094900
      7 C7           2.6210     1.2530    -0.3470 c5         1 P87       0.102500
      8 C5           0.0270     0.0250    -0.1760 c3         1 P87      -0.154400
      9 C4          -1.2450    -0.8110    -0.2050 c3         1 P87      -0.057400
     10 C1          -2.4610     0.0040    -0.6240 c5         1 P87      -0.101700
     11 C2          -2.7990     1.1390     0.3540 c5         1 P87       0.122400
     12 O           -4.2030     1.2690     0.3310 os         1 P87      -0.400600
     13 C3          -4.7090    -0.0500     0.2760 c5         1 P87       0.123400
     14 C           -3.7710    -0.8130    -0.6630 c5         1 P87      -0.108400
     15 H1           3.8240    -0.9580     1.4290 h1         1 P87       0.049950
     16 H2           3.7510    -1.7780    -0.1300 h1         1 P87       0.049950
     17 H3           5.6970     0.0870     0.3400 hc         1 P87       0.054450
     18 H4           4.9290    -0.0170    -1.2440 hc         1 P87       0.054450
     19 H5           4.1610     1.8550     1.0410 hc         1 P87       0.054450
     20 H6           4.5060     2.3150    -0.6250 hc         1 P87       0.054450
     21 H7           2.4450     1.3650    -1.4210 h1         1 P87       0.049950
     22 H8           1.9380     1.9240     0.1750 h1         1 P87       0.049950
     23 H9          -0.0690     0.8420     0.5480 hc         1 P87       0.055700
     24 H10          0.1710     0.5130    -1.1460 hc         1 P87       0.055700
     25 H11         -1.1190    -1.6460    -0.8970 hc         1 P87       0.058700
     26 H12         -1.4300    -1.2480     0.7810 hc         1 P87       0.058700
     27 H13         -2.2720     0.4310    -1.6130 hc         1 P87       0.054700
     28 H14         -2.4500     0.8800     1.3670 h1         1 P87       0.044200
     29 H15         -2.3560     2.0980     0.0820 h1         1 P87       0.044200
     30 H16         -4.7030    -0.5060     1.2750 h1         1 P87       0.046200
     31 H17         -5.7420    -0.0140    -0.0710 h1         1 P87       0.046200
     32 H18         -4.1720    -0.8550    -1.6760 hc         1 P87       0.053200
     33 H19         -3.6240    -1.8410    -0.3300 hc         1 P87       0.053200
@<TRIPOS>BOND
     1     1     2 2   
     2     2     3 1   
     3     2     8 1   
     4     3     4 1   
     5     3     7 1   
     6     4     5 1   
     7     4    15 1   
     8     4    16 1   
     9     5     6 1   
    10     5    17 1   
    11     5    18 1   
    12     6     7 1   
    13     6    19 1   
    14     6    20 1   
    15     7    21 1   
    16     7    22 1   
    17     8     9 1   
    18     8    23 1   
    19     8    24 1   
    20     9    10 1   
    21     9    25 1   
    22     9    26 1   
    23    10    11 1   
    24    10    14 1   
    25    10    27 1   
    26    11    12 1   
    27    11    28 1   
    28    11    29 1   
    29    12    13 1   
    30    13    14 1   
    31    13    30 1   
    32    13    31 1   
    33    14    32 1   
    34    14    33 1   
@<TRIPOS>SUBSTRUCTURE
     1 P87         1 TEMP              0 ****  ****    0 ROOT
