@<TRIPOS>MOLECULE
P88
   64    68     1     0     0
SMALL
abcg2


@<TRIPOS>ATOM
      1 C1           5.7750    -4.0560    -1.8790 c3         1 P88      -0.204000
      2 N1           6.6280    -0.3500    -0.0960 n2         1 P88      -0.026000
      3 O1           6.4580    -1.6820    -0.3490 os         1 P88      -0.068000
      4 C2           4.7880    -3.3370    -0.9600 c3         1 P88      -0.047000
      5 N2          -7.6790    -0.4750    -1.1600 n2         1 P88      -0.089000
      6 O2           2.3490    -0.8180     0.2900 os         1 P88      -0.232000
      7 C3           4.5830    -4.1020     0.3510 c3         1 P88      -0.204000
      8 O3         -10.1820     0.5020     1.1790 o          1 P88      -0.538500
      9 C4           5.1930    -1.9310    -0.6830 c2         1 P88       0.027000
     10 O4         -10.3670    -0.1420    -0.9480 o          1 P88      -0.538500
     11 C5           5.4620     0.1990    -0.2720 c2         1 P88      -0.066000
     12 C6           4.4930    -0.7660    -0.6580 c2         1 P88      -0.232000
     13 C7           3.0520    -0.5490    -0.9160 c3         1 P88       0.063000
     14 C8           1.0140    -0.6490     0.3110 ca         1 P88       0.079000
     15 C9           0.3740    -0.9410     1.5170 ca         1 P88      -0.193000
     16 C10         -0.9930    -0.7910     1.6340 ca         1 P88      -0.088000
     17 C11         -1.7730    -0.3520     0.5600 cp         1 P88      -0.035000
     18 C12         -1.1200    -0.0640    -0.6350 ca         1 P88      -0.088000
     19 C13          0.2550    -0.2070    -0.7700 ca         1 P88      -0.193000
     20 C14         -3.2330    -0.1980     0.6930 cq         1 P88      -0.078000
     21 C15         -3.7930     0.2540     1.9180 ca         1 P88      -0.128000
     22 C16         -5.1400     0.4130     2.0770 ca         1 P88      -0.117000
     23 C17         -6.0230     0.1260     1.0110 ca         1 P88      -0.014000
     24 C18         -7.4230     0.2660     1.0930 c2         1 P88      -0.163000
     25 C19         -8.2090    -0.0360     0.0090 c2         1 P88      -0.056000
     26 C20         -6.3870    -0.6100    -1.2560 c2         1 P88      -0.076000
     27 C21         -5.4770    -0.3250    -0.2100 ca         1 P88      -0.121000
     28 C22         -4.0840    -0.4830    -0.3500 ca         1 P88      -0.076000
     29 C23         -9.7270     0.1200     0.0830 c2         1 P88       0.380000
     30 C24          5.2490     1.6480    -0.0910 ca         1 P88      -0.080000
     31 C25          4.8580     2.1310     1.1630 ca         1 P88      -0.685000
     32 C26          4.6370     3.4970     1.3080 ca         1 P88      -0.196500
     33 C27          4.8000     4.3590     0.2330 ca         1 P88      -0.092000
     34 C28          5.1840     3.8650    -1.0040 ca         1 P88      -0.196500
     35 C29          5.4130     2.5040    -1.1850 ca         1 P88      -0.685000
     36 CL1          4.6830     1.2020     2.3290 cl         1 P88       1.687500
     37 CL2          5.8350     1.9750    -2.5250 cl         1 P88       1.687500
     38 H1           5.3780    -5.0380    -2.1380 hc         1 P88       0.082333
     39 H1A          5.9400    -3.5080    -2.8060 hc         1 P88       0.082333
     40 H1B          6.7390    -4.2080    -1.3940 hc         1 P88       0.082333
     41 H2           3.8230    -3.2790    -1.4710 hc         1 P88       0.110000
     42 H3           5.5150    -4.1820     0.9110 hc         1 P88       0.082333
     43 H3A          3.8440    -3.6110     0.9840 hc         1 P88       0.082333
     44 H3B          4.2300    -5.1120     0.1410 hc         1 P88       0.082333
     45 H7           2.6970    -1.2060    -1.7180 h1         1 P88       0.094500
     46 H7A          2.8800     0.4840    -1.2370 h1         1 P88       0.094500
     47 H9           0.9570    -1.2920     2.3600 ha         1 P88       0.129000
     48 H10         -1.4620    -1.0430     2.5780 ha         1 P88       0.136000
     49 H12         -1.6820     0.3030    -1.4840 ha         1 P88       0.136000
     50 H13          0.7110     0.0450    -1.7180 ha         1 P88       0.129000
     51 H15         -3.1320     0.4980     2.7400 ha         1 P88       0.113000
     52 H16         -5.5400     0.7690     3.0180 ha         1 P88       0.130000
     53 H18         -7.8780     0.6140     2.0100 ha         1 P88       0.161000
     54 H20         -5.9940    -0.9650    -2.2070 h4         1 P88       0.131000
     55 H22         -3.6960    -0.8560    -1.2910 ha         1 P88       0.120000
     56 H26          4.3320     3.8870     2.2710 ha         1 P88       0.090500
     57 H27          4.6240     5.4190     0.3600 ha         1 P88       0.105000
     58 H28          5.3050     4.5420    -1.8410 ha         1 P88       0.090500
     59 HL1          5.6230     0.7190     2.6000 ha         1 P88      -0.263667
     60 HL1A         4.3230     1.7400     3.2050 ha         1 P88      -0.263667
     61 HL1B         3.9660     0.4090     2.1080 ha         1 P88      -0.263667
     62 HL2          5.1660     1.1900    -2.8820 ha         1 P88      -0.263667
     63 HL2A         5.8440     2.7660    -3.2720 ha         1 P88      -0.263667
     64 HL2B         6.8360     1.5420    -2.4850 ha         1 P88      -0.263667
@<TRIPOS>BOND
     1     1     4 1   
     2     1    38 1   
     3     1    39 1   
     4     1    40 1   
     5     2     3 1   
     6     2    11 1   
     7     3     9 1   
     8     4     7 1   
     9     4     9 1   
    10     4    41 1   
    11     5    25 1   
    12     5    26 1   
    13     6    13 1   
    14     6    14 1   
    15     7    42 1   
    16     7    43 1   
    17     7    44 1   
    18     8    29 1   
    19     9    12 1   
    20    10    29 1   
    21    11    12 1   
    22    11    30 1   
    23    12    13 1   
    24    13    45 1   
    25    13    46 1   
    26    14    15 1   
    27    14    19 1   
    28    15    16 1   
    29    15    47 1   
    30    16    17 1   
    31    16    48 1   
    32    17    18 1   
    33    17    20 1   
    34    18    19 1   
    35    18    49 1   
    36    19    50 1   
    37    20    21 1   
    38    20    28 1   
    39    21    22 1   
    40    21    51 1   
    41    22    23 1   
    42    22    52 1   
    43    23    24 1   
    44    23    27 1   
    45    24    25 1   
    46    24    53 1   
    47    25    29 1   
    48    26    27 1   
    49    26    54 1   
    50    27    28 1   
    51    28    55 1   
    52    30    31 1   
    53    30    35 1   
    54    31    32 1   
    55    31    36 1   
    56    32    33 1   
    57    32    56 1   
    58    33    34 1   
    59    33    57 1   
    60    34    35 1   
    61    34    58 1   
    62    35    37 1   
    63    36    59 1   
    64    36    60 1   
    65    36    61 1   
    66    37    62 1   
    67    37    63 1   
    68    37    64 1   
@<TRIPOS>SUBSTRUCTURE
     1 P88         1 TEMP              0 ****  ****    0 ROOT
