@<TRIPOS>MOLECULE
P88
   64    68     1     0     0
SMALL
No Charge or Current Charge


@<TRIPOS>ATOM
      1 C1           5.1250    -5.0770    -2.2300 c3         1 P88      -0.204000
      2 N1           6.8650    -1.6830    -0.2620 n2         1 P88      -0.026000
      3 O1           6.4380    -3.0090    -0.5260 os         1 P88      -0.068000
      4 C2           4.3950    -4.2670    -1.1350 c3         1 P88      -0.047000
      5 N2          -7.5460    -0.3610    -1.1900 n2         1 P88      -0.089000
      6 O2           2.4750    -1.5190     0.1620 os         1 P88      -0.232000
      7 C3           4.1940    -5.1190     0.1360 c3         1 P88      -0.204000
      8 O3          -9.9880     0.5480     1.0760 o          1 P88      -0.538500
      9 C4           5.1120    -2.9600    -0.8160 c2         1 P88       0.027000
     10 O4         -10.1990    -0.0270    -0.8720 o          1 P88      -0.538500
     11 C5           5.7890    -0.9830    -0.4110 c2         1 P88      -0.066000
     12 C6           4.6930    -1.6960    -0.7450 c2         1 P88      -0.232000
     13 C7           3.2720    -1.1960    -0.9910 c3         1 P88       0.063000
     14 C8           1.1310    -1.2090     0.2350 ca         1 P88       0.079000
     15 C9           0.4490    -1.5000     1.4240 ca         1 P88      -0.193000
     16 C10         -0.9190    -1.2030     1.5520 ca         1 P88      -0.088000
     17 C11         -1.6610    -0.6100     0.4980 cp         1 P88      -0.035000
     18 C12         -0.9470    -0.3330    -0.6970 ca         1 P88      -0.088000
     19 C13          0.4240    -0.6200    -0.8330 ca         1 P88      -0.193000
     20 C14         -3.1010    -0.3260     0.6330 cp         1 P88      -0.078000
     21 C15         -3.6590     0.1260     1.8530 ca         1 P88      -0.128000
     22 C16         -5.0410     0.3500     1.9990 ca         1 P88      -0.117000
     23 C17         -5.9080     0.1220     0.9210 ca         1 P88      -0.014000
     24 C18         -7.2790     0.2910     1.0320 c2         1 P88      -0.163000
     25 C19         -8.0650     0.0300    -0.0600 c2         1 P88      -0.056000
     26 C20         -6.2730    -0.5230    -1.3250 c2         1 P88      -0.076000
     27 C21         -5.3780    -0.3050    -0.3010 ca         1 P88      -0.121000
     28 C22         -3.9950    -0.5180    -0.4470 ca         1 P88      -0.076000
     29 C23         -9.4150     0.1860     0.0530 c          1 P88       0.380000
     30 C24          5.6750     0.3910    -0.2410 ca         1 P88      -0.080000
     31 C25          5.3660     0.9180     1.0440 ca         1 P88      -0.685000
     32 C26          5.1550     2.3180     1.1910 ca         1 P88      -0.196500
     33 C27          5.2380     3.1680     0.0780 ca         1 P88      -0.092000
     34 C28          5.5950     2.6580    -1.1790 ca         1 P88      -0.196500
     35 C29          5.8520     1.2680    -1.3500 ca         1 P88      -0.685000
     36 Cl1          5.2330    -0.2680     2.5560 cl         1 P88       1.687500
     37 Cl2          6.4580     0.5720    -3.0470 cl         1 P88       1.687500
     38 H1           4.5590    -5.9810    -2.4890 hc         1 P88       0.082333
     39 H1A          5.2430    -4.4800    -3.1430 hc         1 P88       0.082333
     40 H1B          6.1210    -5.3880    -1.8920 hc         1 P88       0.082333
     41 H2           3.3950    -4.0270    -1.5210 hc         1 P88       0.110000
     42 H3           5.1590    -5.4130     0.5670 hc         1 P88       0.082333
     43 H3A          3.6360    -4.5570     0.8940 hc         1 P88       0.082333
     44 H3B          3.6300    -6.0320    -0.0910 hc         1 P88       0.082333
     45 H7           2.8620    -1.6800    -1.8870 h1         1 P88       0.094500
     46 H7A          3.2660    -0.1120    -1.1660 h1         1 P88       0.094500
     47 H9           0.9810    -1.9630     2.2520 ha         1 P88       0.129000
     48 H10         -1.4230    -1.4560     2.4820 ha         1 P88       0.136000
     49 H12         -1.4690     0.1240    -1.5350 ha         1 P88       0.136000
     50 H13          0.9130    -0.3810    -1.7720 ha         1 P88       0.129000
     51 H15         -3.0170     0.3100     2.7110 ha         1 P88       0.113000
     52 H16         -5.4340     0.6910     2.9550 ha         1 P88       0.130000
     53 H18         -7.7110     0.6170     1.9780 ha         1 P88       0.161000
     54 H20         -5.8960    -0.8550    -2.2910 h4         1 P88       0.131000
     55 H22         -3.6210    -0.8670    -1.4060 ha         1 P88       0.120000
     56 H26          4.9120     2.7510     2.1620 ha         1 P88       0.090500
     57 H27          5.0440     4.2330     0.1960 ha         1 P88       0.105000
     58 H28          5.6760     3.3500    -2.0180 ha         1 P88       0.090500
     59 HL1          5.4540     8.1530     2.3500 ha         1 P88      -0.263667
     60 HL1A         5.3450     8.1590     2.3010 ha         1 P88      -0.263667
     61 HL1B         3.7970     7.4810     2.4700 ha         1 P88      -0.263667
     62 HL2          2.3040     6.9630    -0.7440 ha         1 P88      -0.263667
     63 HL2A         2.2990     7.0530    -0.7250 ha         1 P88      -0.263667
     64 HL2B         7.2380     6.5000     0.7320 ha         1 P88      -0.263667
@<TRIPOS>BOND
     1     1     4 1   
     2     1    38 1   
     3     1    39 1   
     4     1    40 1   
     5     2     3 1   
     6     2    11 1   
     7     3     9 1   
     8     4     7 1   
     9     4     9 1   
    10     4    41 1   
    11     5    25 1   
    12     5    26 1   
    13     6    13 1   
    14     6    14 1   
    15     7    42 1   
    16     7    43 1   
    17     7    44 1   
    18     8    29 1   
    19     9    12 1   
    20    10    29 1   
    21    11    12 1   
    22    11    30 1   
    23    12    13 1   
    24    13    45 1   
    25    13    46 1   
    26    14    15 ar  
    27    14    19 ar  
    28    15    16 ar  
    29    15    47 1   
    30    16    17 ar  
    31    16    48 1   
    32    17    18 ar  
    33    17    20 1   
    34    18    19 ar  
    35    18    49 1   
    36    19    50 1   
    37    20    21 ar  
    38    20    28 ar  
    39    21    22 ar  
    40    21    51 1   
    41    22    23 ar  
    42    22    52 1   
    43    23    24 1   
    44    23    27 ar  
    45    24    25 1   
    46    24    53 1   
    47    25    29 1   
    48    26    27 1   
    49    26    54 1   
    50    27    28 ar  
    51    28    55 1   
    52    30    31 ar  
    53    30    35 ar  
    54    31    32 ar  
    55    31    36 1   
    56    32    33 ar  
    57    32    56 1   
    58    33    34 ar  
    59    33    57 1   
    60    34    35 ar  
    61    34    58 1   
    62    35    37 1   
    63    36    59 1   
    64    36    60 1   
    65    36    61 1   
    66    37    62 1   
    67    37    63 1   
    68    37    64 1   
@<TRIPOS>SUBSTRUCTURE
     1 P88         1 TEMP              0 ****  ****    0 ROOT
