@<TRIPOS>MOLECULE
P8A
   23    23     1     0     0
SMALL
No Charge or Current Charge


@<TRIPOS>ATOM
      1 C4         148.6820   130.7000   103.8530 cc         1 P8A      -0.204300
      2 C5         148.3100   131.0320   105.1220 cd         1 P8A      -0.189000
      3 C6         147.1230   130.3250   105.4460 cd         1 P8A       0.212500
      4 C7         146.3850   130.4140   106.7770 c          1 P8A       0.620500
      5 O1         146.8310   131.1480   107.6530 o          1 P8A      -0.716500
      6 C3         149.8510   131.1620   103.0200 c3         1 P8A      -0.000100
      7 C1         151.6960   129.3650   103.5330 c3         1 P8A      -0.065400
      8 C2         150.7630   130.0280   102.4880 c3         1 P8A      -0.069400
      9 N          146.7350   129.5640   104.4190 nc         1 P8A      -0.505800
     10 C          150.9850   128.5130   104.6040 c3         1 P8A      -0.093100
     11 O          145.3630   129.7580   106.9520 o          1 P8A      -0.716500
     12 N1         147.6950   129.8050   103.4520 na         1 P8A      -0.047200
     13 H1         148.8320   131.7190   105.7790 ha         1 P8A       0.139000
     14 H3         150.4610   131.8720   103.5940 hc         1 P8A       0.039200
     15 H4         149.4650   131.7240   102.1610 hc         1 P8A       0.039200
     16 H5         152.4010   128.7180   102.9970 hc         1 P8A       0.025700
     17 H6         152.2990   130.1370   104.0270 hc         1 P8A       0.025700
     18 H7         151.3990   130.4550   101.7020 hc         1 P8A       0.024700
     19 H8         150.1530   129.2600   101.9980 hc         1 P8A       0.024700
     20 H10        151.7220   127.9590   105.1970 hc         1 P8A       0.039367
     21 H11        150.4100   129.1410   105.2920 hc         1 P8A       0.039367
     22 H12        150.3060   127.7880   104.1390 hc         1 P8A       0.039367
     23 H9         147.6450   129.3460   102.5430 hn         1 P8A       0.336000
@<TRIPOS>BOND
     1     1     2 2   
     2     1     6 1   
     3     1    12 1   
     4     2     3 1   
     5     2    13 1   
     6     3     4 1   
     7     3     9 2   
     8     4     5 1   
     9     4    11 1   
    10     6     8 1   
    11     6    14 1   
    12     6    15 1   
    13     7     8 1   
    14     7    10 1   
    15     7    16 1   
    16     7    17 1   
    17     8    18 1   
    18     8    19 1   
    19     9    12 1   
    20    10    20 1   
    21    10    21 1   
    22    10    22 1   
    23    12    23 1   
@<TRIPOS>SUBSTRUCTURE
     1 P8A         1 TEMP              0 ****  ****    0 ROOT
