@<TRIPOS>MOLECULE
P8A
   23    23     1     0     0
SMALL
abcg2


@<TRIPOS>ATOM
      1 C4         148.7070   130.7410   103.8640 cc         1 P8A      -0.204300
      2 C5         148.3670   131.1420   105.1390 cd         1 P8A      -0.189000
      3 C6         147.2330   130.3770   105.4980 cd         1 P8A       0.212500
      4 C7         146.4670   130.4340   106.8020 c          1 P8A       0.620500
      5 O1         146.9200   131.2350   107.6610 o          1 P8A      -0.716500
      6 C3         149.8130   131.1620   102.9530 c3         1 P8A      -0.000100
      7 C1         151.6120   129.4120   103.6260 c3         1 P8A      -0.065400
      8 C2         150.7730   130.0430   102.5090 c3         1 P8A      -0.069400
      9 N          146.8920   129.5540   104.5010 nc         1 P8A      -0.505800
     10 C          150.8760   128.3890   104.4940 c3         1 P8A      -0.093100
     11 O          145.4570   129.6970   106.9270 o          1 P8A      -0.716500
     12 N1         147.7920   129.7970   103.5290 na         1 P8A      -0.047200
     13 H1         148.8730   131.8790   105.7380 ha         1 P8A       0.139000
     14 H3         150.3820   131.9440   103.4610 hc         1 P8A       0.039200
     15 H4         149.3810   131.6200   102.0570 hc         1 P8A       0.039200
     16 H5         152.4720   128.9180   103.1650 hc         1 P8A       0.025700
     17 H6         152.0210   130.2070   104.2580 hc         1 P8A       0.025700
     18 H7         151.4460   130.4810   101.7670 hc         1 P8A       0.024700
     19 H8         150.2100   129.2620   101.9880 hc         1 P8A       0.024700
     20 H10        151.5620   127.9250   105.2060 hc         1 P8A       0.039367
     21 H11        150.0640   128.8430   105.0610 hc         1 P8A       0.039367
     22 H12        150.4490   127.5950   103.8750 hc         1 P8A       0.039367
     23 H9         147.7440   129.2760   102.6680 hn         1 P8A       0.336000
@<TRIPOS>BOND
     1     1     2 2   
     2     1     6 1   
     3     1    12 1   
     4     2     3 1   
     5     2    13 1   
     6     3     4 1   
     7     3     9 2   
     8     4     5 1   
     9     4    11 1   
    10     6     8 1   
    11     6    14 1   
    12     6    15 1   
    13     7     8 1   
    14     7    10 1   
    15     7    16 1   
    16     7    17 1   
    17     8    18 1   
    18     8    19 1   
    19     9    12 1   
    20    10    20 1   
    21    10    21 1   
    22    10    22 1   
    23    12    23 1   
@<TRIPOS>SUBSTRUCTURE
     1 P8A         1 TEMP              0 ****  ****    0 ROOT
