@<TRIPOS>MOLECULE
P8D
   26    25     1     0     0
SMALL
No Charge or Current Charge


@<TRIPOS>ATOM
      1 C1           4.5280    -0.3500     0.4230 c3         1 P8D      -0.042100
      2 N1           3.6380    -0.2060    -1.9080 n8         1 P8D      -1.018200
      3 C2           3.2760    -0.5450    -0.4670 c3         1 P8D      -0.190500
      4 P3           1.7230     0.1770     0.4190 p5         1 P8D       1.356000
      5 C4           0.3340    -0.3770    -0.6880 c3         1 P8D      -0.399400
      6 C5          -1.1130    -0.2410    -0.0960 c3         1 P8D      -0.136700
      7 C6          -1.4710     1.2190     0.3390 c          1 P8D       0.751000
      8 C7          -2.1830    -0.8450    -1.0610 c3         1 P8D      -0.160400
      9 C8          -3.5610    -0.9600    -0.3600 c          1 P8D       0.729000
     10 O31          1.8030     1.6730     0.4500 o          1 P8D      -0.822500
     11 O32          1.5610    -0.4290     1.7800 o          1 P8D      -0.822500
     12 O61         -1.7040     1.4280     1.5220 o          1 P8D      -0.771000
     13 O62         -1.5040     2.1030    -0.5090 o          1 P8D      -0.771000
     14 O81         -4.3580    -0.0420    -0.4790 o          1 P8D      -0.782000
     15 O82         -3.7960    -1.9650     0.2960 o          1 P8D      -0.782000
     16 H1           4.7710     0.7150     0.5280 hc         1 P8D       0.006033
     17 H1A          4.3600    -0.7620     1.4250 hc         1 P8D       0.006033
     18 H1B          5.3990    -0.8620    -0.0030 hc         1 P8D       0.006033
     19 HN1          2.8380    -0.4070    -2.5250 hn         1 P8D       0.387500
     20 HN1A         3.7600     0.8120    -2.0060 hn         1 P8D       0.387500
     21 H2           3.0550    -1.6210    -0.4620 h1         1 P8D       0.028700
     22 H4           0.4090     0.1920    -1.6220 hc         1 P8D       0.009200
     23 H4A          0.5320    -1.4260    -0.9330 hc         1 P8D       0.009200
     24 H5          -1.1350    -0.8540     0.8140 hc         1 P8D       0.052700
     25 H7          -2.2350    -0.1750    -1.9290 hc         1 P8D      -0.015800
     26 H7A         -1.8130    -1.8480    -1.3120 hc         1 P8D      -0.015800
@<TRIPOS>BOND
     1     1     3 1   
     2     1    16 1   
     3     1    17 1   
     4     1    18 1   
     5     2     3 1   
     6     2    19 1   
     7     2    20 1   
     8     3     4 1   
     9     3    21 1   
    10     4     5 1   
    11     4    10 1   
    12     4    11 1   
    13     5     6 1   
    14     5    22 1   
    15     5    23 1   
    16     6     7 1   
    17     6     8 1   
    18     6    24 1   
    19     7    12 1   
    20     7    13 1   
    21     8     9 1   
    22     8    25 1   
    23     8    26 1   
    24     9    14 1   
    25     9    15 1   
@<TRIPOS>SUBSTRUCTURE
     1 P8D         1 TEMP              0 ****  ****    0 ROOT
