@<TRIPOS>MOLECULE
P8D
   26    25     1     0     0
SMALL
bcc


@<TRIPOS>ATOM
      1 C1           4.4950    -0.4190     0.3330 c3         1 P8D      -0.042100
      2 N1           3.3810     0.3080    -1.7110 n8         1 P8D      -0.907800
      3 C2           3.2410    -0.5390    -0.5230 c3         1 P8D      -0.032700
      4 P3           1.7400    -0.1300     0.4930 p5         1 P8D       1.040400
      5 C4           0.3600    -0.5520    -0.6440 c3         1 P8D      -0.241600
      6 C5          -1.0190    -0.2460    -0.0630 c3         1 P8D      -0.136700
      7 C6          -1.3180     1.2650    -0.0360 c          1 P8D       0.961600
      8 C7          -2.1120    -0.9540    -0.8770 c3         1 P8D      -0.160400
      9 C8          -3.5140    -0.7290    -0.2940 c          1 P8D       0.939600
     10 O31          1.7720     1.3650     0.7600 o          1 P8D      -0.822500
     11 O32          1.6810    -1.0730     1.6860 o          1 P8D      -0.822500
     12 O61         -1.7470     1.7490     1.0320 o          1 P8D      -0.876300
     13 O62         -1.1600     1.8890    -1.1070 o          1 P8D      -0.876300
     14 O81         -4.3070    -0.0170    -0.9440 o          1 P8D      -0.887300
     15 O82         -3.7560    -1.2810     0.8020 o          1 P8D      -0.887300
     16 H1           4.6130     0.6000     0.7090 hc         1 P8D       0.006033
     17 H1A          4.4510    -1.0850     1.1950 hc         1 P8D       0.006033
     18 H1B          5.3870    -0.6680    -0.2450 hc         1 P8D       0.006033
     19 HN1          2.6070     0.1370    -2.3420 hn         1 P8D       0.332300
     20 HN1A         3.2730     1.2740    -1.4200 hn         1 P8D       0.332300
     21 H2           3.1540    -1.5760    -0.8670 h1         1 P8D       0.028700
     22 H4           0.4730    -0.0240    -1.5950 hc         1 P8D       0.009200
     23 H4A          0.4410    -1.6220    -0.8660 hc         1 P8D       0.009200
     24 H5          -1.0670    -0.6320     0.9590 hc         1 P8D       0.052700
     25 H7          -2.0580    -0.6070    -1.9120 hc         1 P8D      -0.015800
     26 H7A         -1.8950    -2.0280    -0.8870 hc         1 P8D      -0.015800
@<TRIPOS>BOND
     1     1     3 1   
     2     1    16 1   
     3     1    17 1   
     4     1    18 1   
     5     2     3 1   
     6     2    19 1   
     7     2    20 1   
     8     3     4 1   
     9     3    21 1   
    10     4     5 1   
    11     4    10 1   
    12     4    11 1   
    13     5     6 1   
    14     5    22 1   
    15     5    23 1   
    16     6     7 1   
    17     6     8 1   
    18     6    24 1   
    19     7    12 1   
    20     7    13 1   
    21     8     9 1   
    22     8    25 1   
    23     8    26 1   
    24     9    14 1   
    25     9    15 1   
@<TRIPOS>SUBSTRUCTURE
     1 P8D         1 TEMP              0 ****  ****    0 ROOT
