@<TRIPOS>MOLECULE
P8G
   87    91     1     0     0
SMALL
No Charge or Current Charge


@<TRIPOS>ATOM
      1 C25         27.6670    -8.4270     1.2750 c3         1 P8G       0.152900
      2 C21         27.5190   -10.3060     2.8240 c6         1 P8G       0.356300
      3 C16         25.6750   -14.8170     4.6080 cc         1 P8G       0.136300
      4 C20         27.3130    -9.9800     5.2020 c6         1 P8G       0.146300
      5 C15         23.4440   -15.3190    -1.2070 c6         1 P8G       0.119300
      6 C17         25.5750   -15.0790     3.2810 cd         1 P8G      -0.150000
      7 C14         23.9020   -13.9100    -0.7130 c6         1 P8G       0.164300
      8 C19         27.6790    -8.9430     6.3100 c3         1 P8G       0.158600
      9 C13         24.5550   -13.9830     0.7040 c6         1 P8G       0.135300
     10 C9          22.1460    -7.7330     2.7150 c6         1 P8G       0.115300
     11 C11         22.5770   -16.0070    -0.1010 c6         1 P8G       0.145300
     12 C8          22.2550    -6.7700     1.4940 c6         1 P8G       0.086300
     13 C7          22.2200    -7.5610     0.1470 c6         1 P8G       0.147300
     14 C5          23.2570    -8.8290     2.5930 c6         1 P8G       0.182300
     15 C6          23.3150    -8.6820     0.1700 c6         1 P8G       0.326300
     16 C4          23.1970    -9.9040     3.7210 c3         1 P8G       0.178600
     17 C1          23.7090   -11.3020    -2.2240 cc         1 P8G       0.138300
     18 C3          24.2760   -12.5870    -2.7750 c3         1 P8G       0.143300
     19 C2          24.2680   -10.5180    -1.2670 cd         1 P8G      -0.135000
     20 O16         28.1130    -9.7430     1.6410 os         1 P8G      -0.445000
     21 C22         27.9350   -11.8060     2.9870 c6         1 P8G       0.155300
     22 O14         27.5090   -12.6010     1.8400 oh         1 P8G      -0.733000
     23 O13         27.9360    -9.5400     3.9710 os         1 P8G      -0.482000
     24 O12         27.1330    -9.2890     7.5970 oh         1 P8G      -0.729000
     25 C24         27.7500   -11.4470     5.5370 c6         1 P8G       0.127300
     26 O15         29.1680   -11.5390     5.8260 oh         1 P8G      -0.696000
     27 C23         27.3680   -12.3690     4.3310 c6         1 P8G       0.169300
     28 O11         27.8000   -13.7470     4.5450 os         1 P8G      -0.427000
     29 C18         26.9570   -14.5880     5.3690 c3         1 P8G       0.141300
     30 N6          24.4400   -14.6130     5.1580 nc         1 P8G      -0.378000
     31 N5          23.5510   -14.6650     4.1940 nd         1 P8G      -0.187800
     32 N4          24.2330   -14.9170     3.0270 na         1 P8G       0.134800
     33 C12         23.6150   -14.7600     1.6880 c6         1 P8G       0.280300
     34 O9          24.8860   -12.6610     1.2070 oh         1 P8G      -0.715000
     35 O8          23.3010   -16.0680     1.1540 os         1 P8G      -0.432000
     36 C10         22.1260   -17.4520    -0.4950 c3         1 P8G       0.170600
     37 O7          21.2800   -18.0680     0.4960 oh         1 P8G      -0.703000
     38 O6          24.8350   -13.3290    -1.6660 os         1 P8G      -0.432000
     39 N3          22.4660   -10.8420    -2.5620 nc         1 P8G      -0.359000
     40 N2          22.1930    -9.8070    -1.8030 nd         1 P8G      -0.179800
     41 N1          23.2920    -9.5910    -1.0000 na         1 P8G       0.129800
     42 O2          23.1440    -9.5270     1.3340 os         1 P8G      -0.422000
     43 O1          24.1460   -10.9680     3.5180 oh         1 P8G      -0.733000
     44 O4          21.1910    -5.7960     1.5220 oh         1 P8G      -0.660000
     45 O3          22.3900    -6.6300    -0.9450 oh         1 P8G      -0.710000
     46 H1          28.1550    -8.1030     0.3470 h1         1 P8G       0.033033
     47 H2          26.5810    -8.4160     1.1120 h1         1 P8G       0.033033
     48 H3          27.9080    -7.6980     2.0590 h1         1 P8G       0.033033
     49 H4          26.4260   -10.2490     2.7280 h2         1 P8G       0.040700
     50 H5          26.2210    -9.9510     5.0720 h1         1 P8G       0.056700
     51 H6          22.8110   -15.1790    -2.0950 h1         1 P8G       0.045700
     52 H7          26.3360   -15.2370     2.5290 h4         1 P8G       0.182000
     53 H8          23.0150   -13.2640    -0.6320 h1         1 P8G       0.068700
     54 H9          28.7720    -8.8610     6.3710 h1         1 P8G       0.037200
     55 H10         27.2970    -7.9630     5.9920 h1         1 P8G       0.037200
     56 H11         25.4760   -14.5720     0.5900 h1         1 P8G       0.072700
     57 H12         22.3270    -7.1560     3.6340 h1         1 P8G       0.036700
     58 H13         21.6640   -15.4110     0.0500 h1         1 P8G       0.061700
     59 H14         23.2270    -6.2550     1.5580 h1         1 P8G       0.044700
     60 H15         21.2400    -8.0580     0.0700 h1         1 P8G       0.097700
     61 H16         24.2460    -8.3480     2.6380 h1         1 P8G       0.040700
     62 H17         24.3150    -8.2260     0.1850 h2         1 P8G       0.051700
     63 H18         23.3830    -9.4080     4.6830 h1         1 P8G       0.043700
     64 H19         22.1800   -10.3170     3.7570 h1         1 P8G       0.043700
     65 H20         23.4950   -13.1620    -3.2880 h1         1 P8G       0.060700
     66 H21         25.0580   -12.3440    -3.5050 h1         1 P8G       0.060700
     67 H22         25.1970   -10.6040    -0.7200 h4         1 P8G       0.173000
     68 H23         29.0320   -11.8290     3.0690 h1         1 P8G       0.085700
     69 H24         28.2100   -12.4720     1.1540 ho         1 P8G       0.523000
     70 H25         27.3360    -8.5420     8.2090 ho         1 P8G       0.512000
     71 H26         27.1710   -11.7810     6.4110 h1         1 P8G       0.058700
     72 H27         29.3040   -11.1320     6.7130 ho         1 P8G       0.504000
     73 H28         26.2740   -12.3550     4.2390 h1         1 P8G       0.067700
     74 H29         26.7470   -14.1190     6.3390 h1         1 P8G       0.062700
     75 H30         27.4410   -15.5560     5.5530 h1         1 P8G       0.062700
     76 H31         22.6900   -14.1860     1.8450 h2         1 P8G       0.090700
     77 H32         25.8660   -12.6740     1.4210 ho         1 P8G       0.538000
     78 H33         21.5960   -17.3940    -1.4550 h1         1 P8G       0.028700
     79 H34         23.0230   -18.0650    -0.6530 h1         1 P8G       0.028700
     80 H35         21.1230   -18.9960     0.2030 ho         1 P8G       0.507000
     81 H37         24.0270   -11.2850     2.5860 ho         1 P8G       0.529000
     82 H39         21.4330    -5.1120     2.1880 ho         1 P8G       0.453000
     83 H40         21.8330    -5.8510    -0.7010 ho         1 P8G       0.526000
     84 O10         24.6040   -16.1020    -1.5640 oh         1 P8G      -0.696000
     85 O5          20.8190    -8.2900     2.7430 oh         1 P8G      -0.694000
     86 H36         25.2290   -15.4680    -1.9880 ho         1 P8G       0.502000
     87 H38         20.2310    -7.5570     2.4410 ho         1 P8G       0.518000
@<TRIPOS>BOND
     1     1    20 1   
     2     1    46 1   
     3     1    47 1   
     4     1    48 1   
     5     2    20 1   
     6     2    21 1   
     7     2    23 1   
     8     2    49 1   
     9     3     6 2   
    10     3    29 1   
    11     3    30 1   
    12     4     8 1   
    13     4    23 1   
    14     4    25 1   
    15     4    50 1   
    16     5     7 1   
    17     5    11 1   
    18     5    51 1   
    19     5    84 1   
    20     6    32 1   
    21     6    52 1   
    22     7     9 1   
    23     7    38 1   
    24     7    53 1   
    25     8    24 1   
    26     8    54 1   
    27     8    55 1   
    28     9    33 1   
    29     9    34 1   
    30     9    56 1   
    31    10    12 1   
    32    10    14 1   
    33    10    57 1   
    34    10    85 1   
    35    11    35 1   
    36    11    36 1   
    37    11    58 1   
    38    12    13 1   
    39    12    44 1   
    40    12    59 1   
    41    13    15 1   
    42    13    45 1   
    43    13    60 1   
    44    14    16 1   
    45    14    42 1   
    46    14    61 1   
    47    15    41 1   
    48    15    42 1   
    49    15    62 1   
    50    16    43 1   
    51    16    63 1   
    52    16    64 1   
    53    17    18 1   
    54    17    19 2   
    55    17    39 1   
    56    18    38 1   
    57    18    65 1   
    58    18    66 1   
    59    19    41 1   
    60    19    67 1   
    61    21    22 1   
    62    21    27 1   
    63    21    68 1   
    64    22    69 1   
    65    24    70 1   
    66    25    26 1   
    67    25    27 1   
    68    25    71 1   
    69    26    72 1   
    70    27    28 1   
    71    27    73 1   
    72    28    29 1   
    73    29    74 1   
    74    29    75 1   
    75    30    31 2   
    76    31    32 1   
    77    32    33 1   
    78    33    35 1   
    79    33    76 1   
    80    34    77 1   
    81    36    37 1   
    82    36    78 1   
    83    36    79 1   
    84    37    80 1   
    85    39    40 2   
    86    40    41 1   
    87    43    81 1   
    88    44    82 1   
    89    45    83 1   
    90    84    86 1   
    91    85    87 1   
@<TRIPOS>SUBSTRUCTURE
     1 P8G         1 TEMP              0 ****  ****    0 ROOT
