@<TRIPOS>MOLECULE
P8G
   87    91     1     0     0
SMALL
abcg2


@<TRIPOS>ATOM
      1 C25         27.6100    -8.7250     1.0960 c3         1 P8G       0.152900
      2 C21         27.4840   -10.3260     2.8120 c6         1 P8G       0.356300
      3 C16         25.4260   -14.5150     4.4090 cc         1 P8G       0.136300
      4 C20         27.2560    -9.8440     5.1020 c6         1 P8G       0.146300
      5 C15         23.6830   -15.4660    -1.4050 c6         1 P8G       0.119300
      6 C17         25.4320   -14.9420     3.1090 cd         1 P8G      -0.150000
      7 C14         23.9410   -14.0210    -0.9670 c6         1 P8G       0.164300
      8 C19         27.6950    -8.7860     6.1010 c3         1 P8G       0.158600
      9 C13         24.5930   -14.0030     0.4140 c6         1 P8G       0.135300
     10 C9          22.3270    -7.6310     2.9150 c6         1 P8G       0.115300
     11 C11         22.8580   -16.1790    -0.3280 c6         1 P8G       0.145300
     12 C8          22.6060    -6.7600     1.6850 c6         1 P8G       0.086300
     13 C7          22.4340    -7.5550     0.3920 c6         1 P8G       0.147300
     14 C5          23.1830    -8.8890     2.8390 c6         1 P8G       0.182300
     15 C6          23.3210    -8.7890     0.4990 c6         1 P8G       0.326300
     16 C4          22.8930    -9.8690     3.9560 c3         1 P8G       0.178600
     17 C1          23.5370   -11.2780    -2.0060 cc         1 P8G       0.138300
     18 C3          24.0760   -12.4540    -2.7480 c3         1 P8G       0.143300
     19 C2          24.1830   -10.4680    -1.1110 cd         1 P8G      -0.135000
     20 O16         28.1310    -9.9060     1.6710 os         1 P8G      -0.445000
     21 C22         27.8630   -11.7860     3.0670 c6         1 P8G       0.155300
     22 O14         27.3670   -12.6090     2.0330 oh         1 P8G      -0.733000
     23 O13         27.8860    -9.5110     3.8800 os         1 P8G      -0.482000
     24 O12         27.1670    -9.1290     7.3610 oh         1 P8G      -0.729000
     25 C24         27.6230   -11.2720     5.5170 c6         1 P8G       0.127300
     26 O15         28.9980   -11.4160     5.7730 oh         1 P8G      -0.696000
     27 C23         27.2330   -12.2210     4.3830 c6         1 P8G       0.169300
     28 O11         27.5990   -13.5500     4.6630 os         1 P8G      -0.427000
     29 C18         26.5980   -14.3110     5.3090 c3         1 P8G       0.141300
     30 N6          24.1670   -14.1140     4.7040 nc         1 P8G      -0.378000
     31 N5          23.4180   -14.2630     3.6710 nd         1 P8G      -0.187800
     32 N4          24.1660   -14.7600     2.6950 na         1 P8G       0.134800
     33 C12         23.6550   -14.7850     1.3490 c6         1 P8G       0.280300
     34 O9          24.7380   -12.6960     0.8790 oh         1 P8G      -0.715000
     35 O8          23.5000   -16.1050     0.9370 os         1 P8G      -0.432000
     36 C10         22.6240   -17.6380    -0.6510 c3         1 P8G       0.170600
     37 O7          21.6970   -18.1640     0.2660 oh         1 P8G      -0.703000
     38 O6          24.7560   -13.3450    -1.8890 os         1 P8G      -0.432000
     39 N3          22.2340   -10.9100    -2.0250 nc         1 P8G      -0.359000
     40 N2          22.0490    -9.9400    -1.2020 nd         1 P8G      -0.179800
     41 N1          23.2200    -9.6570    -0.6460 na         1 P8G       0.129800
     42 O2          22.9770    -9.5610     1.6090 os         1 P8G      -0.422000
     43 O1          23.8360   -10.9110     3.8910 oh         1 P8G      -0.733000
     44 O4          21.7210    -5.6660     1.6190 oh         1 P8G      -0.660000
     45 O3          22.8510    -6.8320    -0.7340 oh         1 P8G      -0.710000
     46 H1          28.1310    -8.5630     0.1540 h1         1 P8G       0.033033
     47 H2          26.5390    -8.8210     0.8880 h1         1 P8G       0.033033
     48 H3          27.7620    -7.8490     1.7320 h1         1 P8G       0.033033
     49 H4          26.3850   -10.2600     2.6910 h2         1 P8G       0.040700
     50 H5          26.1610    -9.7990     4.9900 h1         1 P8G       0.056700
     51 H6          23.0810   -15.4440    -2.3230 h1         1 P8G       0.045700
     52 H7          26.2180   -15.3210     2.4780 h4         1 P8G       0.182000
     53 H8          22.9620   -13.5280    -0.8740 h1         1 P8G       0.068700
     54 H9          28.7910    -8.7350     6.1160 h1         1 P8G       0.037200
     55 H10         27.3340    -7.8090     5.7590 h1         1 P8G       0.037200
     56 H11         25.5560   -14.5260     0.3570 h1         1 P8G       0.072700
     57 H12         22.6400    -7.0710     3.8100 h1         1 P8G       0.036700
     58 H13         21.8800   -15.6740    -0.2740 h1         1 P8G       0.061700
     59 H14         23.6510    -6.4210     1.7400 h1         1 P8G       0.044700
     60 H15         21.3870    -7.8740     0.3050 h1         1 P8G       0.097700
     61 H16         24.2360    -8.5720     2.9170 h1         1 P8G       0.040700
     62 H17         24.3700    -8.4660     0.5500 h2         1 P8G       0.051700
     63 H18         22.9510    -9.3220     4.9060 h1         1 P8G       0.043700
     64 H19         21.8690   -10.2470     3.8610 h1         1 P8G       0.043700
     65 H20         23.2550   -12.9440    -3.2860 h1         1 P8G       0.060700
     66 H21         24.8090   -12.1450    -3.4960 h1         1 P8G       0.060700
     67 H22         25.2020   -10.4240    -0.7690 h4         1 P8G       0.173000
     68 H23         28.9570   -11.8640     3.1280 h1         1 P8G       0.085700
     69 H24         27.8930   -12.4510     1.2400 ho         1 P8G       0.523000
     70 H25         27.4950    -8.4980     8.0080 ho         1 P8G       0.512000
     71 H26         27.0240   -11.5370     6.3980 h1         1 P8G       0.058700
     72 H27         29.1800   -11.0910     6.6590 ho         1 P8G       0.504000
     73 H28         26.1450   -12.1330     4.2600 h1         1 P8G       0.067700
     74 H29         26.2570   -13.8440     6.2410 h1         1 P8G       0.062700
     75 H30         27.0660   -15.2600     5.5740 h1         1 P8G       0.062700
     76 H31         22.6880   -14.2650     1.3950 h2         1 P8G       0.090700
     77 H32         25.5780   -12.6190     1.3610 ho         1 P8G       0.538000
     78 H33         22.2530   -17.6960    -1.6840 h1         1 P8G       0.028700
     79 H34         23.5780   -18.1790    -0.6200 h1         1 P8G       0.028700
     80 H35         21.6090   -19.1060     0.0940 ho         1 P8G       0.507000
     81 H37         23.6090   -11.5800     4.5440 ho         1 P8G       0.529000
     82 H39         22.0280    -4.9780     2.2190 ho         1 P8G       0.453000
     83 H40         22.3180    -6.0320    -0.7900 ho         1 P8G       0.526000
     84 O10         24.9230   -16.0950    -1.6220 oh         1 P8G      -0.696000
     85 O5          20.9740    -7.9980     2.9900 oh         1 P8G      -0.694000
     86 H36         24.8210   -16.7650    -2.3040 ho         1 P8G       0.502000
     87 H38         20.4460    -7.1960     2.9000 ho         1 P8G       0.518000
@<TRIPOS>BOND
     1     1    20 1   
     2     1    46 1   
     3     1    47 1   
     4     1    48 1   
     5     2    20 1   
     6     2    21 1   
     7     2    23 1   
     8     2    49 1   
     9     3     6 2   
    10     3    29 1   
    11     3    30 1   
    12     4     8 1   
    13     4    23 1   
    14     4    25 1   
    15     4    50 1   
    16     5     7 1   
    17     5    11 1   
    18     5    51 1   
    19     5    84 1   
    20     6    32 1   
    21     6    52 1   
    22     7     9 1   
    23     7    38 1   
    24     7    53 1   
    25     8    24 1   
    26     8    54 1   
    27     8    55 1   
    28     9    33 1   
    29     9    34 1   
    30     9    56 1   
    31    10    12 1   
    32    10    14 1   
    33    10    57 1   
    34    10    85 1   
    35    11    35 1   
    36    11    36 1   
    37    11    58 1   
    38    12    13 1   
    39    12    44 1   
    40    12    59 1   
    41    13    15 1   
    42    13    45 1   
    43    13    60 1   
    44    14    16 1   
    45    14    42 1   
    46    14    61 1   
    47    15    41 1   
    48    15    42 1   
    49    15    62 1   
    50    16    43 1   
    51    16    63 1   
    52    16    64 1   
    53    17    18 1   
    54    17    19 2   
    55    17    39 1   
    56    18    38 1   
    57    18    65 1   
    58    18    66 1   
    59    19    41 1   
    60    19    67 1   
    61    21    22 1   
    62    21    27 1   
    63    21    68 1   
    64    22    69 1   
    65    24    70 1   
    66    25    26 1   
    67    25    27 1   
    68    25    71 1   
    69    26    72 1   
    70    27    28 1   
    71    27    73 1   
    72    28    29 1   
    73    29    74 1   
    74    29    75 1   
    75    30    31 2   
    76    31    32 1   
    77    32    33 1   
    78    33    35 1   
    79    33    76 1   
    80    34    77 1   
    81    36    37 1   
    82    36    78 1   
    83    36    79 1   
    84    37    80 1   
    85    39    40 2   
    86    40    41 1   
    87    43    81 1   
    88    44    82 1   
    89    45    83 1   
    90    84    86 1   
    91    85    87 1   
@<TRIPOS>SUBSTRUCTURE
     1 P8G         1 TEMP              0 ****  ****    0 ROOT
