@<TRIPOS>MOLECULE
P8H
   40    42     1     0     0
SMALL
No Charge or Current Charge


@<TRIPOS>ATOM
      1 C1           3.6180     0.3110    -0.1640 ca         1 P8H      -0.091900
      2 C2           4.0800     0.7950    -1.4010 ca         1 P8H       0.379900
      3 N3           3.3510     1.6280    -2.1810 nb         1 P8H      -0.667000
      4 C4           2.1220     1.9930    -1.7410 ca         1 P8H       0.389900
      5 C5           1.5680     1.5370    -0.5330 ca         1 P8H      -0.197600
      6 C6           2.3460     0.6900     0.2880 ca         1 P8H      -0.025000
      7 C7           0.2080     2.0310    -0.1370 c          1 P8H       0.617700
      8 Br8          4.7140    -0.8430     0.8990 br         1 P8H      -0.073100
      9 O9          -0.1540     3.1540    -0.4610 o          1 P8H      -0.584100
     10 N10         -0.5960     1.2230     0.7010 n          1 P8H      -0.393800
     11 C11         -0.6450    -0.2590     0.5680 c6         1 P8H       0.092500
     12 C12         -1.9380    -0.7280    -0.1380 c6         1 P8H      -0.103900
     13 C13         -1.7920     1.7730     1.3880 c6         1 P8H       0.092500
     14 C14         -3.1030     1.3580     0.6840 c6         1 P8H      -0.103900
     15 C15         -3.2160    -0.1870     0.5620 c6         1 P8H       0.192500
     16 N16         -4.4530    -0.5890    -0.1720 n3         1 P8H      -0.719600
     17 C17         -4.6760    -2.0470    -0.3270 c5         1 P8H       0.159800
     18 C18         -6.0580    -2.0930    -1.0280 c5         1 P8H      -0.080400
     19 C19         -6.7770    -0.8050    -0.5210 c5         1 P8H      -0.080400
     20 C20         -5.7380    -0.1450     0.4210 c5         1 P8H       0.159800
     21 H2           5.0650     0.5170    -1.7750 h4         1 P8H       0.037100
     22 H4           1.5640     2.6640    -2.3940 h4         1 P8H       0.038100
     23 H6           1.9860     0.3480     1.2560 ha         1 P8H       0.140000
     24 H11          0.2090    -0.6370    -0.0070 h1         1 P8H       0.058950
     25 H11A        -0.5890    -0.7090     1.5700 h1         1 P8H       0.058950
     26 H12         -1.9220    -0.3970    -1.1850 hc         1 P8H       0.058700
     27 H12A        -1.9410    -1.8250    -0.1540 hc         1 P8H       0.058700
     28 H13         -1.8050     1.4010     2.4230 h1         1 P8H       0.058950
     29 H13A        -1.7350     2.8690     1.4460 h1         1 P8H       0.058950
     30 H14         -3.9450     1.7650     1.2570 hc         1 P8H       0.058700
     31 H14A        -3.1450     1.8160    -0.3130 hc         1 P8H       0.058700
     32 H15         -3.2490    -0.6060     1.5790 h1         1 P8H       0.015700
     33 H17         -3.9070    -2.5390    -0.9380 h1         1 P8H       0.034950
     34 H17A        -4.7100    -2.5500     0.6500 h1         1 P8H       0.034950
     35 H18         -5.9450    -2.0710    -2.1180 hc         1 P8H       0.047700
     36 H18A        -6.6080    -3.0070    -0.7780 hc         1 P8H       0.047700
     37 H19         -7.0220    -0.1420    -1.3590 hc         1 P8H       0.047700
     38 H19A        -7.7150    -1.0250     0.0010 hc         1 P8H       0.047700
     39 H20         -5.8480    -0.5120     1.4520 h1         1 P8H       0.034950
     40 H20A        -5.8530     0.9470     0.4330 h1         1 P8H       0.034950
@<TRIPOS>BOND
     1     1     2 ar  
     2     1     6 ar  
     3     1     8 1   
     4     2     3 ar  
     5     2    21 1   
     6     3     4 ar  
     7     4     5 ar  
     8     4    22 1   
     9     5     6 ar  
    10     5     7 1   
    11     6    23 1   
    12     7     9 2   
    13     7    10 1   
    14    10    11 1   
    15    10    13 1   
    16    11    12 1   
    17    11    24 1   
    18    11    25 1   
    19    12    15 1   
    20    12    26 1   
    21    12    27 1   
    22    13    14 1   
    23    13    28 1   
    24    13    29 1   
    25    14    15 1   
    26    14    30 1   
    27    14    31 1   
    28    15    16 1   
    29    15    32 1   
    30    16    17 1   
    31    16    20 1   
    32    17    18 1   
    33    17    33 1   
    34    17    34 1   
    35    18    19 1   
    36    18    35 1   
    37    18    36 1   
    38    19    20 1   
    39    19    37 1   
    40    19    38 1   
    41    20    39 1   
    42    20    40 1   
@<TRIPOS>SUBSTRUCTURE
     1 P8H         1 TEMP              0 ****  ****    0 ROOT
