@<TRIPOS>MOLECULE
P8H
   40    42     1     0     0
SMALL
abcg2


@<TRIPOS>ATOM
      1 C1           3.5330     0.3770    -0.2480 ca         1 P8H      -0.091900
      2 C2           3.6780     0.5390    -1.6200 ca         1 P8H       0.379900
      3 N3           2.7420     1.1120    -2.3620 nb         1 P8H      -0.667000
      4 C4           1.6380     1.5480    -1.7740 ca         1 P8H       0.389900
      5 C5           1.3990     1.4100    -0.4110 ca         1 P8H      -0.197600
      6 C6           2.3750     0.8110     0.3740 ca         1 P8H      -0.025000
      7 C7           0.1650     2.0190     0.1830 c          1 P8H       0.617700
      8 BR8          4.9060    -0.4300     0.7480 br         1 P8H      -0.073100
      9 O9          -0.0340     3.2130     0.0080 o          1 P8H      -0.584100
     10 N10         -0.6360     1.2200     0.9110 n          1 P8H      -0.393800
     11 C11         -0.6700    -0.2300     0.8110 c6         1 P8H       0.092500
     12 C12         -1.8760    -0.6860    -0.0030 c6         1 P8H      -0.103900
     13 C13         -1.8380     1.7600     1.5270 c6         1 P8H       0.092500
     14 C14         -3.0770     1.3760     0.7310 c6         1 P8H      -0.103900
     15 C15         -3.1880    -0.1400     0.5580 c6         1 P8H       0.192500
     16 N16         -4.3090    -0.4790    -0.2980 n3         1 P8H      -0.719600
     17 C17         -4.4680    -1.9000    -0.5670 c5         1 P8H       0.159800
     18 C18         -5.8330    -1.9760    -1.2390 c5         1 P8H      -0.080400
     19 C19         -6.6420    -0.8640    -0.5500 c5         1 P8H      -0.080400
     20 C20         -5.5990    -0.0560     0.2350 c5         1 P8H       0.159800
     21 H2           4.5710     0.2000    -2.1300 h4         1 P8H       0.037100
     22 H4           0.9010     2.0190    -2.4130 h4         1 P8H       0.038100
     23 H6           2.2330     0.6950     1.4410 ha         1 P8H       0.140000
     24 H11          0.2400    -0.6120     0.3570 h1         1 P8H       0.058950
     25 H11A        -0.7190    -0.6410     1.8230 h1         1 P8H       0.058950
     26 H12         -1.7590    -0.3570    -1.0410 hc         1 P8H       0.058700
     27 H12A        -1.8770    -1.7770    -0.0080 hc         1 P8H       0.058700
     28 H13         -1.9010     1.3560     2.5410 h1         1 P8H       0.058950
     29 H13A        -1.7540     2.8400     1.6130 h1         1 P8H       0.058950
     30 H14         -3.9520     1.7740     1.2490 hc         1 P8H       0.058700
     31 H14A        -3.0410     1.8510    -0.2540 hc         1 P8H       0.058700
     32 H15         -3.3350    -0.5810     1.5660 h1         1 P8H       0.015700
     33 H17         -3.6710    -2.2820    -1.2050 h1         1 P8H       0.034950
     34 H17A        -4.4630    -2.4970     0.3620 h1         1 P8H       0.034950
     35 H18         -5.7330    -1.7740    -2.3060 hc         1 P8H       0.047700
     36 H18A        -6.2850    -2.9620    -1.1340 hc         1 P8H       0.047700
     37 H19         -7.1650    -0.2430    -1.2780 hc         1 P8H       0.047700
     38 H19A        -7.3980    -1.2700     0.1220 hc         1 P8H       0.047700
     39 H20         -5.6740    -0.2820     1.3120 h1         1 P8H       0.034950
     40 H20A        -5.7390     1.0200     0.1240 h1         1 P8H       0.034950
@<TRIPOS>BOND
     1     1     2 ar  
     2     1     6 ar  
     3     1     8 1   
     4     2     3 ar  
     5     2    21 1   
     6     3     4 ar  
     7     4     5 ar  
     8     4    22 1   
     9     5     6 ar  
    10     5     7 1   
    11     6    23 1   
    12     7     9 2   
    13     7    10 1   
    14    10    11 1   
    15    10    13 1   
    16    11    12 1   
    17    11    24 1   
    18    11    25 1   
    19    12    15 1   
    20    12    26 1   
    21    12    27 1   
    22    13    14 1   
    23    13    28 1   
    24    13    29 1   
    25    14    15 1   
    26    14    30 1   
    27    14    31 1   
    28    15    16 1   
    29    15    32 1   
    30    16    17 1   
    31    16    20 1   
    32    17    18 1   
    33    17    33 1   
    34    17    34 1   
    35    18    19 1   
    36    18    35 1   
    37    18    36 1   
    38    19    20 1   
    39    19    37 1   
    40    19    38 1   
    41    20    39 1   
    42    20    40 1   
@<TRIPOS>SUBSTRUCTURE
     1 P8H         1 TEMP              0 ****  ****    0 ROOT
