@<TRIPOS>MOLECULE
P8J
   57    59     1     0     0
SMALL
bcc


@<TRIPOS>ATOM
      1 C2         -21.0480   -10.7220     2.3670 cc         1 P8J      -0.185600
      2 C3         -21.7780   -13.1850     2.1170 c3         1 P8J       0.116100
      3 C4         -20.7210    -6.0910    -0.1790 c3         1 P8J       0.150400
      4 C5         -20.0280    -6.6640     1.0370 c6         1 P8J       0.156100
      5 C6         -19.6160    -8.6950     2.1160 c6         1 P8J       0.239800
      6 C7         -18.1150    -8.4280     2.2490 c6         1 P8J       0.081100
      7 C11        -23.1720   -14.4580    -1.9790 c6         1 P8J       0.164100
      8 C12        -23.9780   -12.2520    -2.0700 c6         1 P8J       0.354900
      9 C14        -22.9040   -13.0240     0.0230 c6         1 P8J       0.057100
     10 O11        -24.9970   -11.4920    -2.5920 os         1 P8J      -0.379600
     11 C13        -23.9660   -12.0910    -0.5530 c6         1 P8J       0.128100
     12 O9         -23.6830   -10.7470    -0.2610 oh         1 P8J      -0.576800
     13 O8         -24.2030   -13.5950    -2.4070 os         1 P8J      -0.417600
     14 C15        -23.0860   -14.4650    -0.4590 c6         1 P8J       0.098100
     15 O10        -24.2530   -15.0440     0.0670 oh         1 P8J      -0.581800
     16 O6         -22.9940   -12.9500     1.4330 os         1 P8J      -0.420600
     17 C1         -20.8470   -12.0270     2.0000 cd         1 P8J       0.207600
     18 N3         -19.6140   -12.1140     1.4490 nd         1 P8J      -0.348000
     19 N2         -19.0590   -10.9560     1.4600 nc         1 P8J      -0.204800
     20 N1         -19.9100   -10.1040     2.0130 na         1 P8J       0.104400
     21 O2         -20.1310    -8.0790     0.9770 os         1 P8J      -0.381600
     22 O1         -22.0960    -6.3780    -0.0840 oh         1 P8J      -0.592800
     23 C9         -18.5740    -6.2250     1.1510 c6         1 P8J       0.122100
     24 O5         -17.9060    -6.5410    -0.0440 oh         1 P8J      -0.584800
     25 C8         -17.9390    -6.9160     2.3570 c6         1 P8J       0.113100
     26 O4         -16.5860    -6.5480     2.4020 oh         1 P8J      -0.600800
     27 O3         -17.5860    -9.0200     3.4060 oh         1 P8J      -0.601800
     28 H1         -21.8710   -10.2140     2.8400 h4         1 P8J       0.194000
     29 H2         -22.0480   -13.3560     3.1600 h1         1 P8J       0.064700
     30 H3         -21.2730   -14.0900     1.7610 h1         1 P8J       0.064700
     31 H4         -20.2800    -6.5110    -1.0900 h1         1 P8J       0.043200
     32 H5         -20.5300    -5.0110    -0.1950 h1         1 P8J       0.043200
     33 H6         -20.5460    -6.2940     1.9370 h1         1 P8J       0.051700
     34 H7         -20.1270    -8.3390     3.0230 h2         1 P8J       0.060700
     35 H8         -17.6080    -8.7790     1.3450 h1         1 P8J       0.094700
     36 H11        -22.1980   -14.1010    -2.3560 h1         1 P8J       0.049700
     37 H12        -22.9990   -11.9320    -2.4810 h2         1 P8J       0.029700
     38 H13        -21.9220   -12.6680    -0.3200 h1         1 P8J       0.069700
     39 H14        -25.6920   -10.5830    -4.2640 h1         1 P8J       0.035367
     40 H15        -23.9680   -10.9920    -4.3310 h1         1 P8J       0.035367
     41 H16        -25.1920   -12.2620    -4.5260 h1         1 P8J       0.035367
     42 H17        -24.9530   -12.3890    -0.1690 h1         1 P8J       0.073700
     43 H18        -23.6500   -10.6480     0.6950 ho         1 P8J       0.412000
     44 H19        -23.5180   -16.6240    -4.3180 ho         1 P8J       0.405000
     45 H20        -22.1930   -15.0440    -0.1750 h1         1 P8J       0.039700
     46 H21        -24.2530   -14.8980     1.0190 ho         1 P8J       0.415000
     47 H22        -22.5240    -6.0430    -0.8760 ho         1 P8J       0.413000
     48 H23        -18.5690    -5.1410     1.3370 h1         1 P8J       0.054700
     49 H24        -16.9730    -6.3290     0.0690 ho         1 P8J       0.426000
     50 H25        -18.4720    -6.5720     3.2570 h1         1 P8J       0.046700
     51 H26        -16.1510    -7.0600     3.0920 ho         1 P8J       0.433000
     52 H27        -17.3240    -9.9220     3.1980 ho         1 P8J       0.432000
     53 C16        -24.9530   -11.3360    -3.9970 c3         1 P8J       0.127700
     54 C10        -23.4210   -15.8350    -2.5550 c3         1 P8J       0.148400
     55 O7         -23.2640   -15.7720    -3.9530 oh         1 P8J      -0.593800
     56 H9         -24.4220   -16.1810    -2.2750 h1         1 P8J       0.037700
     57 H10        -22.7010   -16.5270    -2.0970 h1         1 P8J       0.037700
@<TRIPOS>BOND
     1     1    17 2   
     2     1    20 1   
     3     1    28 1   
     4     2    16 1   
     5     2    17 1   
     6     2    29 1   
     7     2    30 1   
     8     3     4 1   
     9     3    22 1   
    10     3    31 1   
    11     3    32 1   
    12     4    21 1   
    13     4    23 1   
    14     4    33 1   
    15     5     6 1   
    16     5    20 1   
    17     5    21 1   
    18     5    34 1   
    19     6    25 1   
    20     6    27 1   
    21     6    35 1   
    22     7    13 1   
    23     7    14 1   
    24     7    36 1   
    25     7    54 1   
    26     8    10 1   
    27     8    11 1   
    28     8    13 1   
    29     8    37 1   
    30     9    11 1   
    31     9    14 1   
    32     9    16 1   
    33     9    38 1   
    34    10    53 1   
    35    11    12 1   
    36    11    42 1   
    37    12    43 1   
    38    14    15 1   
    39    14    45 1   
    40    15    46 1   
    41    17    18 1   
    42    18    19 2   
    43    19    20 1   
    44    22    47 1   
    45    23    24 1   
    46    23    25 1   
    47    23    48 1   
    48    24    49 1   
    49    25    26 1   
    50    25    50 1   
    51    26    51 1   
    52    27    52 1   
    53    39    53 1   
    54    40    53 1   
    55    41    53 1   
    56    44    55 1   
    57    54    55 1   
    58    54    56 1   
    59    54    57 1   
@<TRIPOS>SUBSTRUCTURE
     1 P8J         1 TEMP              0 ****  ****    0 ROOT
