@<TRIPOS>MOLECULE
P8J
   57    59     1     0     0
SMALL
No Charge or Current Charge


@<TRIPOS>ATOM
      1 C2         -21.1310   -10.7160     2.3850 cc         1 P8J      -0.153000
      2 C3         -21.9710   -13.1620     2.2720 c3         1 P8J       0.139300
      3 C4         -20.0230    -5.9910    -0.6310 c3         1 P8J       0.173600
      4 C5         -19.6360    -6.5980     0.7580 c6         1 P8J       0.179300
      5 C6         -19.6570    -8.6840     1.9980 c6         1 P8J       0.292300
      6 C7         -18.1830    -8.4840     2.4910 c6         1 P8J       0.104300
      7 C11        -22.9030   -14.0170    -2.0940 c6         1 P8J       0.187300
      8 C12        -24.6730   -12.3810    -1.9140 c6         1 P8J       0.401300
      9 C14        -23.2330   -12.8480     0.1440 c6         1 P8J       0.080300
     10 O11        -25.9910   -12.0720    -2.4080 os         1 P8J      -0.426000
     11 C13        -24.6570   -12.4570    -0.3470 c6         1 P8J       0.151300
     12 O9         -25.0750   -11.2360     0.3060 oh         1 P8J      -0.699000
     13 O8         -24.2600   -13.6520    -2.4570 os         1 P8J      -0.464000
     14 C15        -22.7620   -14.1690    -0.5400 c6         1 P8J       0.121300
     15 O10        -23.5210   -15.2750    -0.0090 oh         1 P8J      -0.704000
     16 O6         -23.2360   -12.9460     1.5970 os         1 P8J      -0.467000
     17 C1         -21.0190   -12.0190     1.9930 cd         1 P8J       0.142300
     18 N3         -19.8670   -12.1760     1.2510 nd         1 P8J      -0.348000
     19 N2         -19.2560   -11.0260     1.1610 nc         1 P8J      -0.204800
     20 N1         -20.0140   -10.1180     1.8500 na         1 P8J       0.125800
     21 O2         -19.8480    -8.0340     0.7170 os         1 P8J      -0.428000
     22 O1         -21.3950    -6.2450    -1.0000 oh         1 P8J      -0.715000
     23 C9         -18.1630    -6.2690     1.1720 c6         1 P8J       0.145300
     24 O5         -17.1970    -6.7150     0.1980 oh         1 P8J      -0.707000
     25 C8         -17.8610    -6.9580     2.5390 c6         1 P8J       0.136300
     26 O4         -16.4840    -6.7610     2.9080 oh         1 P8J      -0.663000
     27 O3         -17.9420    -9.0700     3.7980 oh         1 P8J      -0.724000
     28 H1         -21.8810   -10.1960     2.9650 h4         1 P8J       0.176000
     29 H2         -22.1310   -13.2210     3.3560 h1         1 P8J       0.064700
     30 H3         -21.5090   -14.1070     1.9610 h1         1 P8J       0.064700
     31 H4         -19.3460    -6.4080    -1.3890 h1         1 P8J       0.043200
     32 H5         -19.8380    -4.9090    -0.5910 h1         1 P8J       0.043200
     33 H6         -20.3170    -6.1670     1.5070 h1         1 P8J       0.051700
     34 H7         -20.3570    -8.2650     2.7350 h2         1 P8J       0.060700
     35 H8         -17.5190    -8.9440     1.7420 h1         1 P8J       0.094700
     36 H11        -22.2260   -13.2160    -2.4290 h1         1 P8J       0.049700
     37 H12        -23.9750   -11.5970    -2.2420 h2         1 P8J       0.029700
     38 H13        -22.5440   -12.0430    -0.1530 h1         1 P8J       0.069700
     39 H14        -27.1300   -11.5770    -4.0880 h1         1 P8J       0.035367
     40 H15        -25.4510   -10.9960    -4.1230 h1         1 P8J       0.035367
     41 H16        -25.8060   -12.7200    -4.3950 h1         1 P8J       0.035367
     42 H17        -25.3440   -13.2680    -0.0650 h1         1 P8J       0.073700
     43 H18        -24.7650   -11.3310     1.2380 ho         1 P8J       0.511000
     44 H19        -22.3900   -16.0650    -4.6870 ho         1 P8J       0.504000
     45 H20        -21.6950   -14.3150    -0.3150 h1         1 P8J       0.039700
     46 H21        -23.6930   -15.0460     0.9350 ho         1 P8J       0.514000
     47 H22        -21.5170    -5.8960    -1.9150 ho         1 P8J       0.512000
     48 H23        -18.0780    -5.1800     1.3100 h1         1 P8J       0.054700
     49 H24        -16.3440    -6.7480     0.6960 ho         1 P8J       0.525000
     50 H25        -18.5130    -6.4980     3.2980 h1         1 P8J       0.046700
     51 H26        -16.3370    -7.3730     3.6680 ho         1 P8J       0.472000
     52 H27        -17.9070   -10.0520     3.6850 ho         1 P8J       0.531000
     53 C16        -26.0960   -11.8310    -3.8210 c3         1 P8J       0.150900
     54 C10        -22.5020   -15.3180    -2.8660 c3         1 P8J       0.171600
     55 O7         -22.5690   -15.1750    -4.3010 oh         1 P8J      -0.716000
     56 H9         -23.1650   -16.1310    -2.5390 h1         1 P8J       0.037700
     57 H10        -21.4820   -15.5910    -2.5640 h1         1 P8J       0.037700
@<TRIPOS>BOND
     1     1    17 2   
     2     1    20 1   
     3     1    28 1   
     4     2    16 1   
     5     2    17 1   
     6     2    29 1   
     7     2    30 1   
     8     3     4 1   
     9     3    22 1   
    10     3    31 1   
    11     3    32 1   
    12     4    21 1   
    13     4    23 1   
    14     4    33 1   
    15     5     6 1   
    16     5    20 1   
    17     5    21 1   
    18     5    34 1   
    19     6    25 1   
    20     6    27 1   
    21     6    35 1   
    22     7    13 1   
    23     7    14 1   
    24     7    36 1   
    25     7    54 1   
    26     8    10 1   
    27     8    11 1   
    28     8    13 1   
    29     8    37 1   
    30     9    11 1   
    31     9    14 1   
    32     9    16 1   
    33     9    38 1   
    34    10    53 1   
    35    11    12 1   
    36    11    42 1   
    37    12    43 1   
    38    14    15 1   
    39    14    45 1   
    40    15    46 1   
    41    17    18 1   
    42    18    19 2   
    43    19    20 1   
    44    22    47 1   
    45    23    24 1   
    46    23    25 1   
    47    23    48 1   
    48    24    49 1   
    49    25    26 1   
    50    25    50 1   
    51    26    51 1   
    52    27    52 1   
    53    39    53 1   
    54    40    53 1   
    55    41    53 1   
    56    44    55 1   
    57    54    55 1   
    58    54    56 1   
    59    54    57 1   
@<TRIPOS>SUBSTRUCTURE
     1 P8J         1 TEMP              0 ****  ****    0 ROOT
