@<TRIPOS>MOLECULE
P8K
   48    47     1     0     0
SMALL
abcg2


@<TRIPOS>ATOM
      1 C10         55.9800    12.6730   -19.1420 c3         1 P8K      -0.088100
      2 C13         62.5510     6.1390   -30.0180 c3         1 P8K      -0.077400
      3 P01         57.8600     8.2060   -26.3000 p5         1 P8K       1.407400
      4 C01         58.6620     7.2160   -22.5750 c3         1 P8K      -0.070400
      5 O01         58.4030     9.6020   -26.1410 o          1 P8K      -0.826000
      6 C02         59.0180     7.2110   -27.2960 c3         1 P8K      -0.449400
      7 O02         57.8960     7.4420   -24.8490 os         1 P8K      -0.607400
      8 C03         59.1900     7.7200   -28.7300 c3         1 P8K      -0.032400
      9 C04         57.6840     8.2270   -21.9820 c3         1 P8K      -0.075400
     10 C05         59.0550     7.5230   -24.0070 c3         1 P8K       0.216600
     11 C06         57.3340     7.9330   -20.5240 c3         1 P8K      -0.072400
     12 C07         56.2570     8.8500   -19.9390 c3         1 P8K      -0.069400
     13 C08         56.6520    10.3240   -19.8640 c3         1 P8K      -0.078400
     14 C09         55.5870    11.1990   -19.2060 c3         1 P8K      -0.075400
     15 C11         60.1480     6.8790   -29.5780 c3         1 P8K      -0.069400
     16 C12         61.5960     6.8860   -29.0890 c3         1 P8K      -0.075400
     17 C14         63.9930     6.1410   -29.5170 c3         1 P8K      -0.086100
     18 H1          55.2020    13.2750   -18.6690 hc         1 P8K       0.028033
     19 H2          56.9020    12.8080   -18.5690 hc         1 P8K       0.028033
     20 H3          56.1520    13.0750   -20.1450 hc         1 P8K       0.028033
     21 H4          62.5090     6.5900   -31.0150 hc         1 P8K       0.028700
     22 H5          62.2050     5.1070   -30.1350 hc         1 P8K       0.028700
     23 H6          58.2320     6.2100   -22.5290 hc         1 P8K       0.023200
     24 H7          59.5790     7.1930   -21.9750 hc         1 P8K       0.023200
     25 H9          58.6550     6.1780   -27.3050 hc         1 P8K       0.037200
     26 H10         59.9800     7.2060   -26.7770 hc         1 P8K       0.037200
     27 H11         59.5490     8.7530   -28.7040 hc         1 P8K       0.043700
     28 H12         58.2120     7.7450   -29.2180 hc         1 P8K       0.043700
     29 H13         58.1160     9.2280   -22.0690 hc         1 P8K       0.056200
     30 H14         56.7670     8.2340   -22.5780 hc         1 P8K       0.056200
     31 H15         59.8040     6.8050   -24.3580 h1         1 P8K       0.018200
     32 H16         59.4840     8.5260   -24.0780 h1         1 P8K       0.018200
     33 H17         56.9930     6.8950   -20.4480 hc         1 P8K       0.025700
     34 H18         58.2410     8.0030   -19.9130 hc         1 P8K       0.025700
     35 H19         55.3420     8.7540   -20.5360 hc         1 P8K       0.030700
     36 H20         56.0050     8.5020   -18.9320 hc         1 P8K       0.030700
     37 H21         57.5920    10.4160   -19.3060 hc         1 P8K       0.042700
     38 H22         56.8540    10.7080   -20.8680 hc         1 P8K       0.042700
     39 H23         54.6480    11.0950   -19.7590 hc         1 P8K       0.031200
     40 H24         55.3900    10.8270   -18.1950 hc         1 P8K       0.031200
     41 H25         60.1230     7.2520   -30.6080 hc         1 P8K       0.019700
     42 H26         59.7850     5.8450   -29.6170 hc         1 P8K       0.019700
     43 H27         61.6550     6.4420   -28.0910 hc         1 P8K       0.040200
     44 H28         61.9330     7.9240   -28.9830 hc         1 P8K       0.040200
     45 H29         64.6560     5.6070   -30.2020 hc         1 P8K       0.024367
     46 H30         64.3700     7.1620   -29.4140 hc         1 P8K       0.024367
     47 H31         64.0680     5.6610   -28.5380 hc         1 P8K       0.024367
     48 O1          56.4530     8.0240   -26.7980 o          1 P8K      -0.826000
@<TRIPOS>BOND
     1     1    14 1   
     2     1    18 1   
     3     1    19 1   
     4     1    20 1   
     5     2    16 1   
     6     2    17 1   
     7     2    21 1   
     8     2    22 1   
     9     3     5 1   
    10     3     6 1   
    11     3     7 1   
    12     3    48 1   
    13     4     9 1   
    14     4    10 1   
    15     4    23 1   
    16     4    24 1   
    17     6     8 1   
    18     6    25 1   
    19     6    26 1   
    20     7    10 1   
    21     8    15 1   
    22     8    27 1   
    23     8    28 1   
    24     9    11 1   
    25     9    29 1   
    26     9    30 1   
    27    10    31 1   
    28    10    32 1   
    29    11    12 1   
    30    11    33 1   
    31    11    34 1   
    32    12    13 1   
    33    12    35 1   
    34    12    36 1   
    35    13    14 1   
    36    13    37 1   
    37    13    38 1   
    38    14    39 1   
    39    14    40 1   
    40    15    16 1   
    41    15    41 1   
    42    15    42 1   
    43    16    43 1   
    44    16    44 1   
    45    17    45 1   
    46    17    46 1   
    47    17    47 1   
@<TRIPOS>SUBSTRUCTURE
     1 P8K         1 TEMP              0 ****  ****    0 ROOT
