@<TRIPOS>MOLECULE
P8K
   48    47     1     0     0
SMALL
No Charge or Current Charge


@<TRIPOS>ATOM
      1 C10         57.1930    12.9290   -20.1310 c3         1 P8K      -0.088100
      2 C13         62.6180     7.0910   -29.6550 c3         1 P8K      -0.077400
      3 P01         57.4130     7.3510   -25.8930 p5         1 P8K       1.407400
      4 C01         58.0770     6.2900   -22.4240 c3         1 P8K      -0.070400
      5 O01         57.6210     8.7110   -25.3120 o          1 P8K      -0.826000
      6 C02         58.8290     6.8820   -26.9730 c3         1 P8K      -0.449400
      7 O02         57.5230     6.1780   -24.7870 os         1 P8K      -0.607400
      8 C03         58.9490     7.7290   -28.2640 c3         1 P8K      -0.032400
      9 C04         57.4170     7.6560   -22.1190 c3         1 P8K      -0.075400
     10 C05         58.6200     6.1360   -23.8640 c3         1 P8K       0.216600
     11 C06         56.9570     7.7850   -20.6470 c3         1 P8K      -0.072400
     12 C07         56.2120     9.1020   -20.3200 c3         1 P8K      -0.069400
     13 C08         57.0820    10.3760   -20.4360 c3         1 P8K      -0.078400
     14 C09         56.3300    11.6580   -20.0150 c3         1 P8K      -0.075400
     15 C11         60.0850     7.2820   -29.2160 c3         1 P8K      -0.069400
     16 C12         61.5110     7.4660   -28.6450 c3         1 P8K      -0.075400
     17 C14         64.0390     7.2700   -29.0880 c3         1 P8K      -0.086100
     18 H1          56.6180    13.8100   -19.8220 hc         1 P8K       0.028033
     19 H2          58.0800    12.8560   -19.4900 hc         1 P8K       0.028033
     20 H3          57.5240    13.0810   -21.1650 hc         1 P8K       0.028033
     21 H4          62.5130     7.7090   -30.5550 hc         1 P8K       0.028700
     22 H5          62.4870     6.0470   -29.9660 hc         1 P8K       0.028700
     23 H6          57.3590     5.4850   -22.2260 hc         1 P8K       0.023200
     24 H7          58.9120     6.1410   -21.7290 hc         1 P8K       0.023200
     25 H9          58.7050     5.8240   -27.2280 hc         1 P8K       0.037200
     26 H10         59.7390     6.9800   -26.3740 hc         1 P8K       0.037200
     27 H11         59.0950     8.7840   -27.9980 hc         1 P8K       0.043700
     28 H12         58.0010     7.6750   -28.8140 hc         1 P8K       0.043700
     29 H13         58.1320     8.4530   -22.3530 hc         1 P8K       0.056200
     30 H14         56.5500     7.7950   -22.7750 hc         1 P8K       0.056200
     31 H15         59.1420     5.1750   -23.9490 h1         1 P8K       0.018200
     32 H16         59.3510     6.9320   -24.0610 h1         1 P8K       0.018200
     33 H17         56.2900     6.9460   -20.4120 hc         1 P8K       0.025700
     34 H18         57.8260     7.6890   -19.9840 hc         1 P8K       0.025700
     35 H19         55.3400     9.1960   -20.9790 hc         1 P8K       0.030700
     36 H20         55.8250     9.0320   -19.2960 hc         1 P8K       0.030700
     37 H21         57.9760    10.2610   -19.8090 hc         1 P8K       0.042700
     38 H22         57.4270    10.4940   -21.4700 hc         1 P8K       0.042700
     39 H23         55.4360    11.7760   -20.6390 hc         1 P8K       0.031200
     40 H24         55.9860    11.5550   -18.9790 hc         1 P8K       0.031200
     41 H25         60.0010     7.8610   -30.1450 hc         1 P8K       0.019700
     42 H26         59.9350     6.2300   -29.4880 hc         1 P8K       0.019700
     43 H27         61.6300     6.8470   -27.7480 hc         1 P8K       0.040200
     44 H28         61.6440     8.5100   -28.3360 hc         1 P8K       0.040200
     45 H29         64.7880     6.9930   -29.8390 hc         1 P8K       0.024367
     46 H30         64.2130     8.3140   -28.7990 hc         1 P8K       0.024367
     47 H31         64.1870     6.6360   -28.2050 hc         1 P8K       0.024367
     48 O1          56.1370     7.2410   -26.6630 o          1 P8K      -0.826000
@<TRIPOS>BOND
     1     1    14 1   
     2     1    18 1   
     3     1    19 1   
     4     1    20 1   
     5     2    16 1   
     6     2    17 1   
     7     2    21 1   
     8     2    22 1   
     9     3     5 1   
    10     3     6 1   
    11     3     7 1   
    12     3    48 1   
    13     4     9 1   
    14     4    10 1   
    15     4    23 1   
    16     4    24 1   
    17     6     8 1   
    18     6    25 1   
    19     6    26 1   
    20     7    10 1   
    21     8    15 1   
    22     8    27 1   
    23     8    28 1   
    24     9    11 1   
    25     9    29 1   
    26     9    30 1   
    27    10    31 1   
    28    10    32 1   
    29    11    12 1   
    30    11    33 1   
    31    11    34 1   
    32    12    13 1   
    33    12    35 1   
    34    12    36 1   
    35    13    14 1   
    36    13    37 1   
    37    13    38 1   
    38    14    39 1   
    39    14    40 1   
    40    15    16 1   
    41    15    41 1   
    42    15    42 1   
    43    16    43 1   
    44    16    44 1   
    45    17    45 1   
    46    17    46 1   
    47    17    47 1   
@<TRIPOS>SUBSTRUCTURE
     1 P8K         1 TEMP              0 ****  ****    0 ROOT
