@<TRIPOS>MOLECULE
P8M
   70    75     1     0     0
SMALL
No Charge or Current Charge


@<TRIPOS>ATOM
      1 C38         34.8920    87.0760    53.1850 c3         1 P8M       0.010900
      2 C39         35.8210    86.9380    54.3910 cx         1 P8M      -0.135700
      3 C40         37.1610    86.2530    54.2590 cx         1 P8M      -0.123400
      4 C41         37.0960    87.7400    54.5170 cx         1 P8M      -0.123400
      5 C36         30.0780    90.4280    55.2000 ca         1 P8M      -0.052000
      6 C33         26.1570    84.0940    53.7290 c5         1 P8M      -0.071400
      7 C30         24.8480    84.7290    55.5990 c5         1 P8M      -0.071400
      8 C25         29.4530    88.1880    54.5220 ca         1 P8M      -0.060000
      9 N01         30.2780    82.1590    49.4680 n8         1 P8M      -1.004100
     10 O03         28.2700    82.0160    50.8330 o          1 P8M      -0.549500
     11 C04         29.9890    83.9930    51.3920 ca         1 P8M      -0.336500
     12 C05         30.7500    85.1090    51.0050 ca         1 P8M       0.286000
     13 C06         31.4340    85.8690    51.9660 ca         1 P8M      -0.168000
     14 C07         31.3700    85.5250    53.3310 ca         1 P8M       0.015700
     15 C08         30.6170    84.3990    53.7110 ca         1 P8M      -0.163000
     16 C09         29.9320    83.6330    52.7540 ca         1 P8M       0.005000
     17 C11         32.5340    87.7330    53.9920 cc         1 P8M      -0.234300
     18 C12         33.7550    88.0500    53.4570 cd         1 P8M      -0.063300
     19 N13         33.7620    89.4670    53.3600 na         1 P8M       0.164300
     20 C14         34.8280    90.2470    52.8500 cc         1 P8M       0.481900
     21 N15         35.7170    89.7540    51.9990 nd         1 P8M      -0.623000
     22 C16         36.5720    90.7840    51.5720 cd         1 P8M       0.256500
     23 C17         37.7610    90.6480    50.6210 c          1 P8M       0.632500
     24 O18         38.4180    91.6450    50.3360 o          1 P8M      -0.695000
     25 O19         38.0350    89.5450    50.1600 o          1 P8M      -0.695000
     26 C20         36.2410    92.0250    52.1010 cc         1 P8M      -0.243000
     27 S21         34.8390    91.9640    53.1350 ss         1 P8M      -0.078400
     28 N22         32.5740    90.0030    53.8560 nd         1 P8M      -0.512800
     29 C23         31.8520    88.9610    54.2080 cc         1 P8M       0.313500
     30 C24         30.4620    89.1680    54.6780 ca         1 P8M      -0.119500
     31 C26         28.1280    88.4240    54.9280 ca         1 P8M      -0.011000
     32 C27         27.1540    87.3880    54.7340 cg         1 P8M      -0.124000
     33 C28         26.3580    86.4880    54.5520 c1         1 P8M      -0.103100
     34 C29         25.4450    85.3480    54.3060 c5         1 P8M       0.017400
     35 C31         26.0330    83.9060    56.1920 c5         1 P8M      -0.078900
     36 C32         26.9190    83.5240    54.9620 c5         1 P8M      -0.078900
     37 C34         27.7840    89.6690    55.4880 ca         1 P8M       0.184000
     38 C35         28.7570    90.6700    55.6150 ca         1 P8M      -0.164000
     39 F37         26.5150    89.9250    55.8870 f          1 P8M      -0.177000
     40 O43         28.5920    83.8630    49.1000 o          1 P8M      -0.549500
     41 H1          34.4700    86.0880    52.9670 hc         1 P8M       0.075700
     42 H2          35.4530    87.3170    52.2780 hc         1 P8M       0.075700
     43 H3          35.2740    86.7440    55.3110 hc         1 P8M       0.057700
     44 H4          37.4840    85.6100    55.0740 hc         1 P8M       0.079450
     45 H5          37.4740    85.9250    53.2700 hc         1 P8M       0.079450
     46 H6          37.3740    88.0970    55.5060 hc         1 P8M       0.079450
     47 H7          37.3850    88.3980    53.7010 hc         1 P8M       0.079450
     48 H8          30.8110    91.2260    55.3080 ha         1 P8M       0.136000
     49 H9          26.8300    84.3330    52.8960 hc         1 P8M       0.047700
     50 H10         25.4280    83.3680    53.3490 hc         1 P8M       0.047700
     51 H11         24.4730    85.4860    56.2980 hc         1 P8M       0.047700
     52 H12         24.0010    84.0740    55.3600 hc         1 P8M       0.047700
     53 H13         29.6660    87.2460    54.0370 ha         1 P8M       0.129000
     54 H14         31.4180    86.4400    55.2930 hc         1 P8M       0.062700
     55 H15         32.9270    85.7800    54.7810 hc         1 P8M       0.062700
     56 H16         29.8780    81.2250    49.5280 hn         1 P8M       0.473500
     57 H17         30.1140    82.4020    48.4950 hn         1 P8M       0.473500
     58 H18         32.0080    86.7290    51.6350 ha         1 P8M       0.157000
     59 H19         30.5570    84.1160    54.7600 ha         1 P8M       0.120000
     60 H20         29.3560    82.7680    53.0780 ha         1 P8M       0.136000
     61 H22         36.7340    92.9730    51.9300 h4         1 P8M       0.169000
     62 H23         24.6540    85.7010    53.6330 hc         1 P8M       0.070700
     63 H24         25.6750    83.0210    56.7310 hc         1 P8M       0.041200
     64 H25         26.6070    84.5030    56.9100 hc         1 P8M       0.041200
     65 H26         27.0700    82.4410    54.8800 hc         1 P8M       0.041200
     66 H27         27.9140    83.9750    55.0530 hc         1 P8M       0.041200
     67 H28         28.4850    91.6360    56.0310 ha         1 P8M       0.129000
     68 S02         29.1000    83.0260    50.1830 sy         1 P8M       1.144600
     69 C10         32.0670    86.3520    54.4140 c3         1 P8M       0.044200
     70 F42         30.8510    85.4750    49.7070 f          1 P8M      -0.151000
@<TRIPOS>BOND
     1     1     2 1   
     2     1    18 1   
     3     1    41 1   
     4     1    42 1   
     5     2     3 1   
     6     2     4 1   
     7     2    43 1   
     8     3     4 1   
     9     3    44 1   
    10     3    45 1   
    11     4    46 1   
    12     4    47 1   
    13     5    30 ar  
    14     5    38 ar  
    15     5    48 1   
    16     6    34 1   
    17     6    36 1   
    18     6    49 1   
    19     6    50 1   
    20     7    34 1   
    21     7    35 1   
    22     7    51 1   
    23     7    52 1   
    24     8    30 ar  
    25     8    31 ar  
    26     8    53 1   
    27     9    56 1   
    28     9    57 1   
    29     9    68 1   
    30    10    68 2   
    31    11    12 ar  
    32    11    16 ar  
    33    11    68 1   
    34    12    13 ar  
    35    12    70 1   
    36    13    14 ar  
    37    13    58 1   
    38    14    15 ar  
    39    14    69 1   
    40    15    16 ar  
    41    15    59 1   
    42    16    60 1   
    43    17    18 2   
    44    17    29 1   
    45    17    69 1   
    46    18    19 1   
    47    19    20 1   
    48    19    28 1   
    49    20    21 2   
    50    20    27 1   
    51    21    22 1   
    52    22    23 1   
    53    22    26 2   
    54    23    24 1   
    55    23    25 1   
    56    26    27 1   
    57    26    61 1   
    58    28    29 2   
    59    29    30 1   
    60    31    32 1   
    61    31    37 ar  
    62    32    33 3   
    63    33    34 1   
    64    34    62 1   
    65    35    36 1   
    66    35    63 1   
    67    35    64 1   
    68    36    65 1   
    69    36    66 1   
    70    37    38 ar  
    71    37    39 1   
    72    38    67 1   
    73    40    68 2   
    74    54    69 1   
    75    55    69 1   
@<TRIPOS>SUBSTRUCTURE
     1 P8M         1 TEMP              0 ****  ****    0 ROOT
