@<TRIPOS>MOLECULE
P8M
   70    75     1     0     0
SMALL
bcc


@<TRIPOS>ATOM
      1 C38         34.9910    87.0660    53.1180 c3         1 P8M       0.010900
      2 C39         35.8490    86.8520    54.3470 cx         1 P8M      -0.135700
      3 C40         37.2330    86.3030    54.1920 cx         1 P8M      -0.123400
      4 C41         37.0330    87.7250    54.6280 cx         1 P8M      -0.123400
      5 C36         30.2350    90.2730    55.1880 ca         1 P8M      -0.070000
      6 C33         26.1910    84.1940    53.6570 c5         1 P8M      -0.071400
      7 C30         24.9050    84.8870    55.5470 c5         1 P8M      -0.071400
      8 C25         29.5180    88.1480    54.3420 ca         1 P8M      -0.078000
      9 N01         29.9860    82.4150    49.3880 n8         1 P8M      -0.893700
     10 O03         28.2070    81.9420    51.2040 o          1 P8M      -0.620300
     11 C04         29.8530    83.9300    51.5450 ca         1 P8M      -0.336500
     12 C05         30.5540    85.0470    51.1190 ca         1 P8M       0.250900
     13 C06         31.3150    85.8040    51.9870 ca         1 P8M      -0.186000
     14 C07         31.3750    85.4530    53.3310 ca         1 P8M       0.015700
     15 C08         30.6730    84.3300    53.7670 ca         1 P8M      -0.181000
     16 C09         29.9240    83.5730    52.8870 ca         1 P8M      -0.013000
     17 C11         32.5990    87.6180    53.9040 cc         1 P8M      -0.299600
     18 C12         33.8250    87.9620    53.3810 cd         1 P8M      -0.012600
     19 N13         33.7790    89.3140    53.1940 na         1 P8M       0.113600
     20 C14         34.7020    90.1870    52.6350 cc         1 P8M       0.481900
     21 N15         35.8880    89.8790    52.2580 nd         1 P8M      -0.623000
     22 C16         36.5400    90.9690    51.7360 cd         1 P8M       0.321800
     23 C17         37.9750    90.8680    51.2470 c          1 P8M       0.843100
     24 O18         38.4180    91.8840    50.6810 o          1 P8M      -0.800300
     25 O19         38.5580    89.7940    51.4700 o          1 P8M      -0.800300
     26 C20         35.8030    92.1110    51.7280 cc         1 P8M      -0.181400
     27 S21         34.2440    91.8390    52.3970 ss         1 P8M      -0.223300
     28 N22         32.6070    89.8430    53.5620 nd         1 P8M      -0.512800
     29 C23         31.8780    88.8380    53.9960 cc         1 P8M       0.378800
     30 C24         30.5300    89.0830    54.5170 ca         1 P8M      -0.119500
     31 C26         28.2290    88.3660    54.8290 ca         1 P8M      -0.011000
     32 C27         27.2120    87.3900    54.6400 cg         1 P8M      -0.124000
     33 C28         26.4050    86.5170    54.4420 c1         1 P8M      -0.103100
     34 C29         25.4650    85.4260    54.2190 c5         1 P8M       0.017400
     35 C31         26.0060    83.9610    56.0910 c5         1 P8M      -0.078900
     36 C32         26.8920    83.5950    54.8790 c5         1 P8M      -0.078900
     37 C34         27.9810    89.5600    55.4950 ca         1 P8M       0.148900
     38 C35         28.9620    90.5140    55.6760 ca         1 P8M      -0.182000
     39 F37         26.7510    89.7800    55.9700 f          1 P8M      -0.141900
     40 O43         27.9970    83.8860    49.6550 o          1 P8M      -0.620300
     41 H1          34.5920    86.1030    52.7890 hc         1 P8M       0.075700
     42 H2          35.5960    87.4530    52.2990 hc         1 P8M       0.075700
     43 H3          35.2990    86.5010    55.2160 hc         1 P8M       0.057700
     44 H4          37.5810    85.5820    54.9200 hc         1 P8M       0.079450
     45 H5          37.6000    86.1310    53.1870 hc         1 P8M       0.079450
     46 H6          37.2470    87.9810    55.6580 hc         1 P8M       0.079450
     47 H7          37.2610    88.5010    53.9110 hc         1 P8M       0.079450
     48 H8          31.0090    91.0130    55.3410 ha         1 P8M       0.154000
     49 H9          26.8720    84.4330    52.8390 hc         1 P8M       0.047700
     50 H10         25.4390    83.5050    53.2650 hc         1 P8M       0.047700
     51 H11         24.6260    85.6790    56.2420 hc         1 P8M       0.047700
     52 H12         24.0010    84.3180    55.3230 hc         1 P8M       0.047700
     53 H13         29.7010    87.2340    53.7960 ha         1 P8M       0.147000
     54 H14         31.5990    86.3180    55.2570 hc         1 P8M       0.062700
     55 H15         33.0600    85.6620    54.5960 hc         1 P8M       0.062700
     56 H16         30.5190    81.6440    49.7760 hn         1 P8M       0.418300
     57 H17         29.5830    82.1600    48.4910 hn         1 P8M       0.418300
     58 H18         31.8420    86.6720    51.6100 ha         1 P8M       0.175000
     59 H19         30.7060    84.0490    54.8120 ha         1 P8M       0.138000
     60 H20         29.3850    82.7070    53.2460 ha         1 P8M       0.154000
     61 H22         36.0950    93.0880    51.3790 h4         1 P8M       0.187000
     62 H23         24.6680    85.7720    53.5560 hc         1 P8M       0.070700
     63 H24         25.5740    83.0790    56.5620 hc         1 P8M       0.041200
     64 H25         26.5950    84.4660    56.8570 hc         1 P8M       0.041200
     65 H26         27.0370    82.5190    54.7750 hc         1 P8M       0.041200
     66 H27         27.8850    84.0350    54.9910 hc         1 P8M       0.041200
     67 H28         28.7360    91.4330    56.2020 ha         1 P8M       0.147000
     68 S02         28.8460    82.9950    50.4290 sy         1 P8M       1.286200
     69 C10         32.1780    86.2520    54.3320 c3         1 P8M       0.044200
     70 F42         30.5000    85.4090    49.8390 f          1 P8M      -0.115900
@<TRIPOS>BOND
     1     1     2 1   
     2     1    18 1   
     3     1    41 1   
     4     1    42 1   
     5     2     3 1   
     6     2     4 1   
     7     2    43 1   
     8     3     4 1   
     9     3    44 1   
    10     3    45 1   
    11     4    46 1   
    12     4    47 1   
    13     5    30 ar  
    14     5    38 ar  
    15     5    48 1   
    16     6    34 1   
    17     6    36 1   
    18     6    49 1   
    19     6    50 1   
    20     7    34 1   
    21     7    35 1   
    22     7    51 1   
    23     7    52 1   
    24     8    30 ar  
    25     8    31 ar  
    26     8    53 1   
    27     9    56 1   
    28     9    57 1   
    29     9    68 1   
    30    10    68 2   
    31    11    12 ar  
    32    11    16 ar  
    33    11    68 1   
    34    12    13 ar  
    35    12    70 1   
    36    13    14 ar  
    37    13    58 1   
    38    14    15 ar  
    39    14    69 1   
    40    15    16 ar  
    41    15    59 1   
    42    16    60 1   
    43    17    18 2   
    44    17    29 1   
    45    17    69 1   
    46    18    19 1   
    47    19    20 1   
    48    19    28 1   
    49    20    21 2   
    50    20    27 1   
    51    21    22 1   
    52    22    23 1   
    53    22    26 2   
    54    23    24 1   
    55    23    25 1   
    56    26    27 1   
    57    26    61 1   
    58    28    29 2   
    59    29    30 1   
    60    31    32 1   
    61    31    37 ar  
    62    32    33 3   
    63    33    34 1   
    64    34    62 1   
    65    35    36 1   
    66    35    63 1   
    67    35    64 1   
    68    36    65 1   
    69    36    66 1   
    70    37    38 ar  
    71    37    39 1   
    72    38    67 1   
    73    40    68 2   
    74    54    69 1   
    75    55    69 1   
@<TRIPOS>SUBSTRUCTURE
     1 P8M         1 TEMP              0 ****  ****    0 ROOT
