@<TRIPOS>MOLECULE
P8N
   67    71     1     0     0
SMALL
abcg2


@<TRIPOS>ATOM
      1 C4          32.3860    14.7560    -2.4440 c3         1 P8N      -0.136400
      2 C5          32.1760    13.5320    -3.3110 c          1 P8N       0.603100
      3 C6          32.0210    12.7160    -5.6250 c3         1 P8N       0.143300
      4 N1          32.1170    17.0630    -0.6040 nc         1 P8N      -0.334000
      5 C7          30.6000    12.8550    -6.1110 ca         1 P8N      -0.104300
      6 C8          30.3260    13.4190    -7.3550 ca         1 P8N      -0.098500
      7 N2          32.3490    13.7160    -4.6280 ns         1 P8N      -0.491900
      8 C9          29.0220    13.6320    -7.7700 ca         1 P8N      -0.098500
      9 C10         27.9500    13.2920    -6.9440 ca         1 P8N      -0.065800
     10 C11         26.5610    13.6140    -7.2620 ce         1 P8N      -0.115200
     11 C12         26.1520    14.4560    -8.2160 cf         1 P8N      -0.272200
     12 N3          24.0000    14.9660    -7.3640 ns         1 P8N      -0.394400
     13 C13         24.7310    14.7780    -8.4790 c          1 P8N       0.611300
     14 C14         28.2280    12.6770    -5.7220 ca         1 P8N      -0.098500
     15 C15         29.5310    12.4680    -5.3070 ca         1 P8N      -0.098500
     16 N4          30.2290    15.6880    -3.0510 n2         1 P8N      -0.589900
     17 C20         26.8460    17.3730    -6.2610 ca         1 P8N       0.124000
     18 C19         28.0270    16.6730    -6.4530 ca         1 P8N      -0.117000
     19 C18         28.7010    16.1680    -5.3570 ca         1 P8N      -0.065000
     20 C21         26.3400    17.5890    -4.9890 ca         1 P8N      -0.117000
     21 C22         27.0310    17.0860    -3.8980 ca         1 P8N      -0.065000
     22 C17         28.2120    16.3660    -4.0670 ca         1 P8N      -0.137900
     23 C16         28.9740    15.8540    -2.9050 ce         1 P8N       0.561500
     24 C23         28.2560    15.6440    -1.6330 cc         1 P8N      -0.207900
     25 C28         28.7460    16.1280    -0.4470 cd         1 P8N      -0.126200
     26 S           27.7000    15.8020     0.8690 ss         1 P8N       0.266000
     27 C26         26.5800    14.9960    -0.1620 cd         1 P8N      -0.206300
     28 C27         25.3220    14.4160     0.3920 c3         1 P8N      -0.022800
     29 C24         27.0020    14.9730    -1.4590 cc         1 P8N      -0.065300
     30 C25         26.2340    14.2760    -2.5390 c3         1 P8N      -0.032800
     31 N5          29.9880    16.7310    -0.2890 na         1 P8N      -0.257800
     32 C2          31.1160    16.3200    -0.9460 cd         1 P8N       0.387800
     33 N           31.6640    17.9770     0.2980 nc         1 P8N      -0.349000
     34 C1          30.3920    17.7840     0.4850 cd         1 P8N       0.411800
     35 C           29.5050    18.5660     1.3770 c3         1 P8N      -0.129400
     36 C3          31.0240    15.2090    -1.9330 c3         1 P8N       0.104200
     37 O           31.8460    12.4630    -2.8160 o          1 P8N      -0.616100
     38 O1          24.2810    14.8860    -9.6080 o          1 P8N      -0.567100
     39 O2          22.6570    15.1540    -7.4400 oh         1 P8N      -0.413100
     40 H1          33.0250    14.4790    -1.6040 hc         1 P8N       0.085200
     41 H2          32.8690    15.5710    -2.9830 hc         1 P8N       0.085200
     42 H3          32.1910    11.7290    -5.1970 h1         1 P8N       0.067200
     43 H4          32.7170    12.8280    -6.4570 h1         1 P8N       0.067200
     44 H5          31.1430    13.7020    -8.0090 ha         1 P8N       0.126000
     45 H6          32.5360    14.6490    -4.9570 hn         1 P8N       0.320500
     46 H7          28.8450    14.0720    -8.7430 ha         1 P8N       0.115000
     47 H8          25.8230    13.1330    -6.6270 ha         1 P8N       0.176000
     48 H9          26.8550    14.9370    -8.8880 ha         1 P8N       0.204000
     49 H10         24.3930    14.9760    -6.4350 hn         1 P8N       0.337500
     50 H11         27.4100    12.3720    -5.0800 ha         1 P8N       0.115000
     51 H12         29.7200    12.0070    -4.3470 ha         1 P8N       0.126000
     52 H13         28.4120    16.5110    -7.4510 ha         1 P8N       0.132000
     53 H14         29.6070    15.5970    -5.5050 ha         1 P8N       0.133000
     54 H15         25.4240    18.1460    -4.8450 ha         1 P8N       0.132000
     55 H16         26.6390    17.2750    -2.9060 ha         1 P8N       0.133000
     56 H17         25.2390    14.5620     1.4670 hc         1 P8N       0.052367
     57 H18         24.4460    14.8680    -0.0750 hc         1 P8N       0.052367
     58 H19         25.2770    13.3420     0.2020 hc         1 P8N       0.052367
     59 H20         25.9090    13.2900    -2.2050 hc         1 P8N       0.049033
     60 H21         25.3410    14.8340    -2.8240 hc         1 P8N       0.049033
     61 H22         26.8310    14.1390    -3.4370 hc         1 P8N       0.049033
     62 H23         30.0300    19.4590     1.7050 hc         1 P8N       0.065033
     63 H24         28.5930    18.8700     0.8640 hc         1 P8N       0.065033
     64 H25         29.2190    17.9990     2.2640 hc         1 P8N       0.065033
     65 H26         30.5340    14.3610    -1.4330 h1         1 P8N       0.086700
     66 H27         22.5150    16.1070    -7.5230 ho         1 P8N       0.436000
     67 CL          25.9880    17.9790    -7.6370 cl         1 P8N      -0.194000
@<TRIPOS>BOND
     1     1     2 1   
     2     1    36 1   
     3     1    40 1   
     4     1    41 1   
     5     2     7 1   
     6     2    37 2   
     7     3     5 1   
     8     3     7 1   
     9     3    42 1   
    10     3    43 1   
    11     4    32 2   
    12     4    33 1   
    13     5     6 ar  
    14     5    15 ar  
    15     6     8 ar  
    16     6    44 1   
    17     7    45 1   
    18     8     9 ar  
    19     8    46 1   
    20     9    10 1   
    21     9    14 ar  
    22    10    11 2   
    23    10    47 1   
    24    11    13 1   
    25    11    48 1   
    26    12    13 1   
    27    12    39 1   
    28    12    49 1   
    29    13    38 2   
    30    14    15 ar  
    31    14    50 1   
    32    15    51 1   
    33    16    23 2   
    34    16    36 1   
    35    17    18 ar  
    36    17    20 ar  
    37    17    67 1   
    38    18    19 ar  
    39    18    52 1   
    40    19    22 ar  
    41    19    53 1   
    42    20    21 ar  
    43    20    54 1   
    44    21    22 ar  
    45    21    55 1   
    46    22    23 1   
    47    23    24 1   
    48    24    25 2   
    49    24    29 1   
    50    25    26 1   
    51    25    31 1   
    52    26    27 1   
    53    27    28 1   
    54    27    29 2   
    55    28    56 1   
    56    28    57 1   
    57    28    58 1   
    58    29    30 1   
    59    30    59 1   
    60    30    60 1   
    61    30    61 1   
    62    31    32 1   
    63    31    34 1   
    64    32    36 1   
    65    33    34 2   
    66    34    35 1   
    67    35    62 1   
    68    35    63 1   
    69    35    64 1   
    70    36    65 1   
    71    39    66 1   
@<TRIPOS>SUBSTRUCTURE
     1 P8N         1 TEMP              0 ****  ****    0 ROOT
