@<TRIPOS>MOLECULE
P8N
   67    71     1     0     0
SMALL
No Charge or Current Charge


@<TRIPOS>ATOM
      1 C4          32.3720    14.6160    -2.3860 c3         1 P8N      -0.136400
      2 C5          32.1950    13.3570    -3.2350 c          1 P8N       0.603100
      3 C6          31.8770    12.5640    -5.6000 c3         1 P8N       0.143300
      4 N1          32.1740    16.7030    -0.2680 nc         1 P8N      -0.334000
      5 C7          30.4890    12.8770    -6.1410 ca         1 P8N      -0.104300
      6 C8          30.3300    13.4630    -7.4100 ca         1 P8N      -0.098500
      7 N2          32.2570    13.5570    -4.5950 ns         1 P8N      -0.491900
      8 C9          29.0490    13.7940    -7.8870 ca         1 P8N      -0.098500
      9 C10         27.9050    13.5460    -7.0990 ca         1 P8N      -0.065800
     10 C11         26.5350    13.9220    -7.5570 ce         1 P8N      -0.115200
     11 C12         26.1690    14.6090    -8.6850 cf         1 P8N      -0.272200
     12 N3          23.7520    14.5840    -8.2550 ns         1 P8N      -0.394400
     13 C13         24.7860    14.9790    -9.0960 c          1 P8N       0.611300
     14 C14         28.0690    12.9480    -5.8340 ca         1 P8N      -0.098500
     15 C15         29.3490    12.6180    -5.3580 ca         1 P8N      -0.098500
     16 N4          30.1260    15.3770    -2.9980 n2         1 P8N      -0.589900
     17 C20         26.7450    17.5030    -6.1760 ca         1 P8N       0.124000
     18 C19         27.9830    16.8810    -6.3870 ca         1 P8N      -0.117000
     19 C18         28.6780    16.3120    -5.3060 ca         1 P8N      -0.065000
     20 C21         26.2080    17.5740    -4.8830 ca         1 P8N      -0.117000
     21 C22         26.9030    17.0100    -3.7990 ca         1 P8N      -0.065000
     22 C17         28.1400    16.3520    -3.9970 ca         1 P8N      -0.137900
     23 C16         28.8890    15.7420    -2.8420 ce         1 P8N       0.561500
     24 C23         28.2830    15.7450    -1.4990 cc         1 P8N      -0.207900
     25 C28         28.7430    16.4210    -0.3930 cd         1 P8N      -0.126200
     26 S           27.8230    16.1850     1.0930 ss         1 P8N       0.266000
     27 C26         26.7520    15.1060     0.1780 cd         1 P8N      -0.206300
     28 C27         25.5920    14.4380     0.8730 c3         1 P8N      -0.022800
     29 C24         27.1340    14.9620    -1.1430 cc         1 P8N      -0.065300
     30 C25         26.4510    14.0640    -2.1480 c3         1 P8N      -0.032800
     31 N5          30.0060    17.0370    -0.4500 na         1 P8N      -0.257800
     32 C2          31.0740    16.2890    -0.8920 cd         1 P8N       0.387800
     33 N           31.8010    17.6890     0.6380 nc         1 P8N      -0.349000
     34 C1          30.4810    17.8160     0.5770 cd         1 P8N       0.411800
     35 C           29.7150    18.8360     1.3760 c3         1 P8N      -0.129400
     36 C3          31.0020    15.0920    -1.8430 c3         1 P8N       0.104200
     37 O           32.0220    12.2520    -2.7400 o          1 P8N      -0.616100
     38 O1          24.5820    15.6070   -10.1250 o          1 P8N      -0.567100
     39 O2          22.3710    14.6690    -8.6810 oh         1 P8N      -0.413100
     40 H1          33.0230    14.3730    -1.5390 hc         1 P8N       0.085200
     41 H2          32.8110    15.4230    -2.9840 hc         1 P8N       0.085200
     42 H3          31.8880    11.5560    -5.1640 h1         1 P8N       0.067200
     43 H4          32.6140    12.5840    -6.4140 h1         1 P8N       0.067200
     44 H5          31.2010    13.6760    -8.0270 ha         1 P8N       0.126000
     45 H6          32.3880    14.5130    -4.9020 hn         1 P8N       0.320500
     46 H7          28.9610    14.2500    -8.8680 ha         1 P8N       0.115000
     47 H8          25.7560    13.6030    -6.8650 ha         1 P8N       0.176000
     48 H9          26.9350    14.9460    -9.3770 ha         1 P8N       0.204000
     49 H10         23.9460    13.9320    -7.4990 hn         1 P8N       0.337500
     50 H11         27.2020    12.7480    -5.2080 ha         1 P8N       0.115000
     51 H12         29.4560    12.1730    -4.3710 ha         1 P8N       0.126000
     52 H13         28.4000    16.8300    -7.3890 ha         1 P8N       0.132000
     53 H14         29.6310    15.8230    -5.4980 ha         1 P8N       0.133000
     54 H15         25.2540    18.0680    -4.7200 ha         1 P8N       0.132000
     55 H16         26.4680    17.0920    -2.8050 ha         1 P8N       0.133000
     56 H17         25.4290    14.8540     1.8750 hc         1 P8N       0.052367
     57 H18         24.6630    14.5700     0.3050 hc         1 P8N       0.052367
     58 H19         25.7680    13.3620     0.9850 hc         1 P8N       0.052367
     59 H20         25.9450    13.2260    -1.6550 hc         1 P8N       0.049033
     60 H21         25.6990    14.6160    -2.7220 hc         1 P8N       0.049033
     61 H22         27.1700    13.6320    -2.8540 hc         1 P8N       0.049033
     62 H23         30.3030    19.7510     1.5050 hc         1 P8N       0.065033
     63 H24         28.7800    19.1110     0.8750 hc         1 P8N       0.065033
     64 H25         29.4720    18.4500     2.3720 hc         1 P8N       0.065033
     65 H26         30.5800    14.2620    -1.2580 h1         1 P8N       0.086700
     66 H27         21.9260    15.1330    -7.9330 ho         1 P8N       0.436000
     67 Cl          25.8710    18.2030    -7.5320 cl         1 P8N      -0.194000
@<TRIPOS>BOND
     1     1     2 1   
     2     1    36 1   
     3     1    40 1   
     4     1    41 1   
     5     2     7 1   
     6     2    37 2   
     7     3     5 1   
     8     3     7 1   
     9     3    42 1   
    10     3    43 1   
    11     4    32 2   
    12     4    33 1   
    13     5     6 ar  
    14     5    15 ar  
    15     6     8 ar  
    16     6    44 1   
    17     7    45 1   
    18     8     9 ar  
    19     8    46 1   
    20     9    10 1   
    21     9    14 ar  
    22    10    11 2   
    23    10    47 1   
    24    11    13 1   
    25    11    48 1   
    26    12    13 1   
    27    12    39 1   
    28    12    49 1   
    29    13    38 2   
    30    14    15 ar  
    31    14    50 1   
    32    15    51 1   
    33    16    23 2   
    34    16    36 1   
    35    17    18 ar  
    36    17    20 ar  
    37    17    67 1   
    38    18    19 ar  
    39    18    52 1   
    40    19    22 ar  
    41    19    53 1   
    42    20    21 ar  
    43    20    54 1   
    44    21    22 ar  
    45    21    55 1   
    46    22    23 1   
    47    23    24 1   
    48    24    25 2   
    49    24    29 1   
    50    25    26 1   
    51    25    31 1   
    52    26    27 1   
    53    27    28 1   
    54    27    29 2   
    55    28    56 1   
    56    28    57 1   
    57    28    58 1   
    58    29    30 1   
    59    30    59 1   
    60    30    60 1   
    61    30    61 1   
    62    31    32 1   
    63    31    34 1   
    64    32    36 1   
    65    33    34 2   
    66    34    35 1   
    67    35    62 1   
    68    35    63 1   
    69    35    64 1   
    70    36    65 1   
    71    39    66 1   
@<TRIPOS>SUBSTRUCTURE
     1 P8N         1 TEMP              0 ****  ****    0 ROOT
