@<TRIPOS>MOLECULE
P8O
   57    62     1     0     0
SMALL
No Charge or Current Charge


@<TRIPOS>ATOM
      1 C2          25.1640     7.7340     5.4460 c3         1 P8O       0.266700
      2 C5          24.4930     8.1180     4.1020 ca         1 P8O       0.254300
      3 C7          23.4690     9.7830     2.8170 ca         1 P8O       0.335900
      4 C8          23.2560     8.9030     1.7470 ca         1 P8O      -0.130000
      5 C12         26.5810     5.6040     2.6970 ca         1 P8O       0.318300
      6 N13         26.9700     6.6800     1.9530 nb         1 P8O      -0.590000
      7 C16         30.3050     7.1370     0.8950 cc         1 P8O       0.698700
      8 C19         29.1930     5.6990     2.0210 ca         1 P8O       0.507000
      9 C21         27.5080     4.5880     3.0870 ca         1 P8O       0.335900
     10 N22         31.3290     7.7970     0.2650 nh         1 P8O      -0.721600
     11 C23         31.0930     8.9040    -0.7020 c6         1 P8O       0.212800
     12 C24         32.1380    10.0300    -0.5130 c6         1 P8O      -0.101900
     13 C27         35.4470     9.1950    -2.1500 ca         1 P8O      -0.068300
     14 C30         38.1730     9.7250    -1.8350 ca         1 P8O      -0.113000
     15 C31         37.2330    10.3650    -1.0030 ca         1 P8O      -0.092000
     16 C32         35.8680    10.0830    -1.1800 ca         1 P8O      -0.098300
     17 C33         34.7070    10.6520    -0.4020 c5         1 P8O       0.212800
     18 C36         33.7650     8.3690     0.3720 c6         1 P8O      -0.101900
     19 C37         32.7110     7.2430     0.2250 c6         1 P8O       0.212800
     20 F1          24.5190     6.7150     6.0600 f          1 P8O      -0.101667
     21 F3          26.4490     7.3440     5.2780 f          1 P8O      -0.101667
     22 F4          25.1930     8.7550     6.3380 f          1 P8O      -0.101667
     23 N6          24.0690     9.4080     3.9700 nb         1 P8O      -0.626000
     24 C9          23.6820     7.5720     1.8660 ca         1 P8O      -0.072000
     25 C10         24.3130     7.1700     3.0570 ca         1 P8O      -0.115000
     26 S11         24.8590     5.4620     3.1940 ss         1 P8O      -0.076300
     27 C14         28.2830     6.6880     1.6400 ca         1 P8O       0.279500
     28 N15         29.0030     7.5820     0.9340 na         1 P8O      -0.456300
     29 N17         30.4640     5.9850     1.5520 nd         1 P8O      -0.720700
     30 N20         28.8310     4.6240     2.7530 nb         1 P8O      -0.610000
     31 C25         33.6070     9.5250    -0.6730 c5         1 P8O      -0.040000
     32 C26         33.9480     9.0410    -2.1500 c5         1 P8O      -0.023100
     33 C28         36.3680     8.5490    -2.9910 ca         1 P8O      -0.100000
     34 C29         37.7410     8.8200    -2.8280 ca         1 P8O      -0.103000
     35 N35         34.4020    11.9760    -0.9680 n8         1 P8O      -0.993200
     36 H1          23.1480    10.8230     2.7530 h4         1 P8O       0.030100
     37 H2          22.7680     9.2530     0.8430 ha         1 P8O       0.130000
     38 H3          27.1780     3.7360     3.6790 h4         1 P8O       0.044100
     39 H4          31.1500     8.5210    -1.7320 h1         1 P8O       0.066950
     40 H5          30.0930     9.3430    -0.5840 h1         1 P8O       0.066950
     41 H6          31.9300    10.8250    -1.2410 hc         1 P8O       0.060700
     42 H7          32.0050    10.4800     0.4800 hc         1 P8O       0.060700
     43 H9          37.5590    11.0630    -0.2350 ha         1 P8O       0.112000
     44 H10         34.9410    10.7720     0.6660 h1         1 P8O       0.036700
     45 H11         33.6920     8.7830     1.3870 hc         1 P8O       0.060700
     46 H12         34.7680     7.9260     0.3020 hc         1 P8O       0.060700
     47 H13         32.8780     6.5200     1.0370 h1         1 P8O       0.066950
     48 H14         32.8700     6.6980    -0.7160 h1         1 P8O       0.066950
     49 H15         23.5320     6.8690     1.0500 ha         1 P8O       0.132000
     50 H16         28.6580     8.4320     0.5240 hn         1 P8O       0.373000
     51 H18         33.4910     9.6910    -2.9060 hc         1 P8O       0.057200
     52 H19         33.6240     8.0180    -2.3650 hc         1 P8O       0.057200
     53 H20         36.0280     7.8510    -3.7520 ha         1 P8O       0.115000
     54 H21         38.4700     8.3290    -3.4690 ha         1 P8O       0.114000
     55 H22         33.6920    12.4290    -0.3840 hn         1 P8O       0.397000
     56 H23         35.2270    12.5740    -0.8610 hn         1 P8O       0.397000
     57 H8          39.2340     9.9310    -1.7130 ha         1 P8O       0.114000
@<TRIPOS>BOND
     1     1     2 1   
     2     1    20 1   
     3     1    21 1   
     4     1    22 1   
     5     2    23 ar  
     6     2    25 ar  
     7     3     4 ar  
     8     3    23 ar  
     9     3    36 1   
    10     4    24 ar  
    11     4    37 1   
    12     5     6 ar  
    13     5     9 ar  
    14     5    26 1   
    15     6    27 ar  
    16     7    10 1   
    17     7    28 1   
    18     7    29 2   
    19     8    27 ar  
    20     8    29 1   
    21     8    30 ar  
    22     9    30 ar  
    23     9    38 1   
    24    10    11 1   
    25    10    19 1   
    26    11    12 1   
    27    11    39 1   
    28    11    40 1   
    29    12    31 1   
    30    12    41 1   
    31    12    42 1   
    32    13    16 ar  
    33    13    32 1   
    34    13    33 ar  
    35    14    15 ar  
    36    14    34 ar  
    37    14    57 1   
    38    15    16 ar  
    39    15    43 1   
    40    16    17 1   
    41    17    31 1   
    42    17    35 1   
    43    17    44 1   
    44    18    19 1   
    45    18    31 1   
    46    18    45 1   
    47    18    46 1   
    48    19    47 1   
    49    19    48 1   
    50    24    25 ar  
    51    24    49 1   
    52    25    26 1   
    53    27    28 1   
    54    28    50 1   
    55    31    32 1   
    56    32    51 1   
    57    32    52 1   
    58    33    34 ar  
    59    33    53 1   
    60    34    54 1   
    61    35    55 1   
    62    35    56 1   
@<TRIPOS>SUBSTRUCTURE
     1 P8O         1 TEMP              0 ****  ****    0 ROOT
