@<TRIPOS>MOLECULE
P8O
   57    62     1     0     0
SMALL
abcg2


@<TRIPOS>ATOM
      1 C2          23.9220     8.7700     5.7020 c3         1 P8O       0.266700
      2 C5          23.7960     8.1540     4.3290 ca         1 P8O       0.254300
      3 C7          22.4880     7.9060     2.4810 ca         1 P8O       0.335900
      4 C8          23.4500     7.1310     1.8490 ca         1 P8O      -0.130000
      5 C12         27.4900     6.8460     3.4060 ca         1 P8O       0.318300
      6 N13         27.8140     7.9090     2.6480 nb         1 P8O      -0.590000
      7 C16         30.2240     7.6880     0.1580 cc         1 P8O       0.698700
      8 C19         29.3580     6.3810     1.5920 ca         1 P8O       0.507000
      9 C21         28.0820     5.6010     3.2510 ca         1 P8O       0.335900
     10 N22         30.9610     8.1540    -0.8530 nh         1 P8O      -0.721600
     11 C23         31.1340     9.5760    -1.1070 c6         1 P8O       0.212800
     12 C24         32.3690    10.0960    -0.3810 c6         1 P8O      -0.101900
     13 C27         35.5830     9.3780    -2.1420 ca         1 P8O      -0.068300
     14 C30         38.2460     8.9210    -1.5280 ca         1 P8O      -0.113000
     15 C31         37.3370     9.1530    -0.4990 ca         1 P8O      -0.092000
     16 C32         36.0090     9.3770    -0.8180 ca         1 P8O      -0.098300
     17 C33         34.8590     9.6900     0.1020 c5         1 P8O       0.212800
     18 C36         33.3670     7.8140    -0.6300 c6         1 P8O      -0.101900
     19 C37         32.0890     7.3630    -1.3250 c6         1 P8O       0.212800
     20 F1          24.2820     7.8550     6.6150 f          1 P8O      -0.101667
     21 F3          24.8580     9.7270     5.7210 f          1 P8O      -0.101667
     22 F4          22.7850     9.3140     6.1150 f          1 P8O      -0.101667
     23 N6          22.6630     8.3990     3.6960 nb         1 P8O      -0.626000
     24 C9          24.6320     6.8690     2.5130 ca         1 P8O      -0.072000
     25 C10         24.8340     7.3920     3.7860 ca         1 P8O      -0.115000
     26 S11         26.3160     7.0790     4.7030 ss         1 P8O      -0.076300
     27 C14         28.7240     7.6440     1.7620 ca         1 P8O       0.279500
     28 N15         29.3010     8.4540     0.8270 na         1 P8O      -0.456300
     29 N17         30.2760     6.4400     0.6040 nd         1 P8O      -0.720700
     30 N20         29.0360     5.3530     2.3450 nb         1 P8O      -0.610000
     31 C25         33.6290     9.3230    -0.7740 c5         1 P8O      -0.040000
     32 C26         34.1060     9.6350    -2.2120 c5         1 P8O      -0.023100
     33 C28         36.4850     9.1450    -3.1670 ca         1 P8O      -0.100000
     34 C29         37.8220     8.9180    -2.8510 ca         1 P8O      -0.103000
     35 N35         34.8900    11.1150     0.4170 n8         1 P8O      -0.993200
     36 H1          21.5490     8.1360     1.9920 h4         1 P8O       0.030100
     37 H2          23.2720     6.7340     0.8590 ha         1 P8O       0.130000
     38 H3          27.7740     4.7770     3.8820 h4         1 P8O       0.044100
     39 H4          31.2380     9.7030    -2.1870 h1         1 P8O       0.066950
     40 H5          30.2460    10.1380    -0.8250 h1         1 P8O       0.066950
     41 H6          32.4920    11.1570    -0.6050 hc         1 P8O       0.060700
     42 H7          32.1990    10.0120     0.6980 hc         1 P8O       0.060700
     43 H9          37.6680     9.1490     0.5330 ha         1 P8O       0.112000
     44 H10         34.8760     9.0600     1.0040 h1         1 P8O       0.036700
     45 H11         33.2890     7.5560     0.4310 hc         1 P8O       0.060700
     46 H12         34.2080     7.2380    -1.0280 hc         1 P8O       0.060700
     47 H13         31.8980     6.3100    -1.1410 h1         1 P8O       0.066950
     48 H14         32.1530     7.4960    -2.4080 h1         1 P8O       0.066950
     49 H15         25.3910     6.2570     2.0420 ha         1 P8O       0.132000
     50 H16         29.0840     9.4270     0.6810 hn         1 P8O       0.373000
     51 H18         33.9110    10.6810    -2.4710 hc         1 P8O       0.057200
     52 H19         33.6100     9.0320    -2.9760 hc         1 P8O       0.057200
     53 H20         36.1590     9.1320    -4.2010 ha         1 P8O       0.115000
     54 H21         38.5360     8.7290    -3.6430 ha         1 P8O       0.114000
     55 H22         34.2160    11.3160     1.1460 hn         1 P8O       0.397000
     56 H23         35.7930    11.3470     0.8130 hn         1 P8O       0.397000
     57 H8          39.2880     8.7360    -1.2960 ha         1 P8O       0.114000
@<TRIPOS>BOND
     1     1     2 1   
     2     1    20 1   
     3     1    21 1   
     4     1    22 1   
     5     2    23 ar  
     6     2    25 ar  
     7     3     4 ar  
     8     3    23 ar  
     9     3    36 1   
    10     4    24 ar  
    11     4    37 1   
    12     5     6 ar  
    13     5     9 ar  
    14     5    26 1   
    15     6    27 ar  
    16     7    10 1   
    17     7    28 1   
    18     7    29 2   
    19     8    27 ar  
    20     8    29 1   
    21     8    30 ar  
    22     9    30 ar  
    23     9    38 1   
    24    10    11 1   
    25    10    19 1   
    26    11    12 1   
    27    11    39 1   
    28    11    40 1   
    29    12    31 1   
    30    12    41 1   
    31    12    42 1   
    32    13    16 ar  
    33    13    32 1   
    34    13    33 ar  
    35    14    15 ar  
    36    14    34 ar  
    37    14    57 1   
    38    15    16 ar  
    39    15    43 1   
    40    16    17 1   
    41    17    31 1   
    42    17    35 1   
    43    17    44 1   
    44    18    19 1   
    45    18    31 1   
    46    18    45 1   
    47    18    46 1   
    48    19    47 1   
    49    19    48 1   
    50    24    25 ar  
    51    24    49 1   
    52    25    26 1   
    53    27    28 1   
    54    28    50 1   
    55    31    32 1   
    56    32    51 1   
    57    32    52 1   
    58    33    34 ar  
    59    33    53 1   
    60    34    54 1   
    61    35    55 1   
    62    35    56 1   
@<TRIPOS>SUBSTRUCTURE
     1 P8O         1 TEMP              0 ****  ****    0 ROOT
