@<TRIPOS>MOLECULE
P8R
   86    85     1     0     0
SMALL
abcg2


@<TRIPOS>ATOM
      1 C4         -11.2200    30.3550    13.7530 c3         1 P8R       0.145400
      2 C5          -9.5700    31.0450    12.2090 c3         1 P8R       0.153100
      3 C6          -8.4040    31.3930    13.1260 c3         1 P8R       0.143600
      4 C7          -6.0620    31.4470    13.1560 c3         1 P8R       0.159600
      5 C8          -4.8610    31.1810    12.2710 c3         1 P8R       0.160100
      6 C10         -1.3460    31.4710    13.2130 c3         1 P8R       0.160600
      7 C13          4.5150    30.9630    12.3720 c3         1 P8R       0.160100
      8 C15          8.0090    30.6150    13.3640 c3         1 P8R       0.160600
      9 C17         11.4890    30.0060    12.4420 c3         1 P8R       0.160600
     10 C20         16.0890    28.9790    12.4820 c3         1 P8R       0.160600
     11 C21         18.3520    28.3760    12.5110 c3         1 P8R       0.160600
     12 C22         19.4330    27.8950    13.4590 c3         1 P8R       0.160100
     13 C24         22.8210    26.8890    12.5390 c3         1 P8R       0.159600
     14 C26         26.0790    25.5420    13.4930 c3         1 P8R       0.153100
     15 C11          0.9960    31.3960    13.2420 c3         1 P8R       0.160600
     16 C12          2.1790    31.0820    12.3470 c3         1 P8R       0.160100
     17 C14          5.6900    30.9660    13.3310 c3         1 P8R       0.160600
     18 C16          9.1810    30.3970    12.4270 c3         1 P8R       0.160600
     19 C18         12.6320    29.7170    13.3940 c3         1 P8R       0.160100
     20 C19         14.9150    29.2050    13.4130 c3         1 P8R       0.160100
     21 C23         21.6460    27.1260    13.4670 c3         1 P8R       0.160100
     22 C25         25.0220    26.0820    12.5480 c3         1 P8R       0.143600
     23 C27         28.2640    24.7160    13.5160 c3         1 P8R       0.145400
     24 C9          -2.5230    31.1970    12.2980 c3         1 P8R       0.160100
     25 O10         13.7910    29.5120    12.6290 os         1 P8R      -0.464500
     26 O11         17.1970    28.6270    13.2690 os         1 P8R      -0.465500
     27 O12         20.5890    27.6430    12.7020 os         1 P8R      -0.464500
     28 O13         23.8740    26.3650    13.3060 os         1 P8R      -0.464500
     29 O14         27.2230    25.2470    12.7370 os         1 P8R      -0.452000
     30 O3         -10.8180    31.3050    12.7970 os         1 P8R      -0.452000
     31 O4          -7.2180    31.1760    12.4050 os         1 P8R      -0.464500
     32 O5          -3.7020    31.4360    13.0230 os         1 P8R      -0.464500
     33 O6          -0.1730    31.2180    12.4850 os         1 P8R      -0.465500
     34 O7           3.3480    31.2010    13.1160 os         1 P8R      -0.464500
     35 O8           6.8530    30.7460    12.5760 os         1 P8R      -0.465500
     36 O9          10.3300    30.2030    13.2100 os         1 P8R      -0.465500
     37 H1         -12.2510    30.5780    14.0280 h1         1 P8R       0.029533
     38 H8         -11.1850    29.3340    13.3530 h1         1 P8R       0.029533
     39 H9         -10.6140    30.3790    14.6650 h1         1 P8R       0.029533
     40 H10         -9.4910    29.9950    11.8950 h1         1 P8R       0.045200
     41 H11         -9.5120    31.6610    11.3070 h1         1 P8R       0.045200
     42 H12         -8.4870    32.4410    13.4470 h1         1 P8R       0.032450
     43 H13         -8.4210    30.7740    14.0340 h1         1 P8R       0.032450
     44 H14         -6.0520    32.4910    13.5000 h1         1 P8R       0.035200
     45 H15         -6.0160    30.8110    14.0500 h1         1 P8R       0.035200
     46 H16         -4.8800    30.1390    11.9210 h1         1 P8R       0.035950
     47 H17         -4.9020    31.8230    11.3800 h1         1 P8R       0.035950
     48 H20         -1.3760    32.5110    13.5660 h1         1 P8R       0.036200
     49 H21         -1.4040    30.8260    14.1010 h1         1 P8R       0.036200
     50 H26          4.4650    29.9930    11.8580 h1         1 P8R       0.036450
     51 H27          4.6550    31.7330    11.6010 h1         1 P8R       0.036450
     52 H30          8.1770    31.5140    13.9740 h1         1 P8R       0.036200
     53 H31          7.9190    29.7660    14.0550 h1         1 P8R       0.036200
     54 H34         11.3610    29.1630    11.7470 h1         1 P8R       0.036200
     55 H35         11.7160    30.8940    11.8360 h1         1 P8R       0.036200
     56 H40         15.8490    28.1820    11.7640 h1         1 P8R       0.035700
     57 H41         16.2900    29.8900    11.9000 h1         1 P8R       0.035700
     58 H42         18.1630    27.6100    11.7460 h1         1 P8R       0.036200
     59 H43         18.6860    29.2830    11.9870 h1         1 P8R       0.036200
     60 H44         19.6240    28.6560    14.2300 h1         1 P8R       0.036200
     61 H45         19.0960    26.9860    13.9760 h1         1 P8R       0.036200
     62 H48         22.5300    26.1930    11.7390 h1         1 P8R       0.035200
     63 H49         23.1160    27.8310    12.0560 h1         1 P8R       0.035200
     64 H52         26.2980    26.2880    14.2710 h1         1 P8R       0.045200
     65 H53         25.6990    24.6450    14.0040 h1         1 P8R       0.045200
     66 H22          1.0710    32.4270    13.6180 h1         1 P8R       0.035700
     67 H23          1.0040    30.7310    14.1170 h1         1 P8R       0.035700
     68 H24          2.0780    30.0650    11.9430 h1         1 P8R       0.035700
     69 H25          2.1940    31.7710    11.4910 h1         1 P8R       0.035700
     70 H28          5.7400    31.9240    13.8660 h1         1 P8R       0.036200
     71 H29          5.5530    30.1780    14.0850 h1         1 P8R       0.036200
     72 H32          8.9890    29.5230    11.7880 h1         1 P8R       0.036200
     73 H33          9.2980    31.2640    11.7620 h1         1 P8R       0.036200
     74 H36         12.7630    30.5560    14.0920 h1         1 P8R       0.036450
     75 H37         12.3970    28.8290    13.9970 h1         1 P8R       0.036450
     76 H38         15.1410    30.0210    14.1140 h1         1 P8R       0.035700
     77 H39         14.7380    28.3020    14.0140 h1         1 P8R       0.035700
     78 H46         21.9360    27.8240    14.2660 h1         1 P8R       0.035950
     79 H47         21.3560    26.1830    13.9510 h1         1 P8R       0.035950
     80 H50         24.8060    25.3390    11.7670 h1         1 P8R       0.032450
     81 H51         25.3940    26.9840    12.0440 h1         1 P8R       0.032450
     82 H55         29.1050    24.5060    12.8560 h1         1 P8R       0.029533
     83 H2          28.5980    25.4160    14.2910 h1         1 P8R       0.029533
     84 H54         27.9710    23.7820    14.0110 h1         1 P8R       0.029533
     85 H18         -2.4840    30.1570    11.9440 h1         1 P8R       0.036200
     86 H19         -2.4680    31.8430    11.4110 h1         1 P8R       0.036200
@<TRIPOS>BOND
     1     1    30 1   
     2     1    37 1   
     3     1    38 1   
     4     1    39 1   
     5     2     3 1   
     6     2    30 1   
     7     2    40 1   
     8     2    41 1   
     9     3    31 1   
    10     3    42 1   
    11     3    43 1   
    12     4     5 1   
    13     4    31 1   
    14     4    44 1   
    15     4    45 1   
    16     5    32 1   
    17     5    46 1   
    18     5    47 1   
    19     6    24 1   
    20     6    33 1   
    21     6    48 1   
    22     6    49 1   
    23     7    17 1   
    24     7    34 1   
    25     7    50 1   
    26     7    51 1   
    27     8    18 1   
    28     8    35 1   
    29     8    52 1   
    30     8    53 1   
    31     9    19 1   
    32     9    36 1   
    33     9    54 1   
    34     9    55 1   
    35    10    20 1   
    36    10    26 1   
    37    10    56 1   
    38    10    57 1   
    39    11    12 1   
    40    11    26 1   
    41    11    58 1   
    42    11    59 1   
    43    12    27 1   
    44    12    60 1   
    45    12    61 1   
    46    13    21 1   
    47    13    28 1   
    48    13    62 1   
    49    13    63 1   
    50    14    22 1   
    51    14    29 1   
    52    14    64 1   
    53    14    65 1   
    54    15    16 1   
    55    15    33 1   
    56    15    66 1   
    57    15    67 1   
    58    16    34 1   
    59    16    68 1   
    60    16    69 1   
    61    17    35 1   
    62    17    70 1   
    63    17    71 1   
    64    18    36 1   
    65    18    72 1   
    66    18    73 1   
    67    19    25 1   
    68    19    74 1   
    69    19    75 1   
    70    20    25 1   
    71    20    76 1   
    72    20    77 1   
    73    21    27 1   
    74    21    78 1   
    75    21    79 1   
    76    22    28 1   
    77    22    80 1   
    78    22    81 1   
    79    23    29 1   
    80    23    82 1   
    81    23    83 1   
    82    23    84 1   
    83    24    32 1   
    84    24    85 1   
    85    24    86 1   
@<TRIPOS>SUBSTRUCTURE
     1 P8R         1 TEMP              0 ****  ****    0 ROOT
