@<TRIPOS>MOLECULE
P8R
   86    85     1     0     0
SMALL
No Charge or Current Charge


@<TRIPOS>ATOM
      1 C4         -11.8320    31.7970    13.7020 c3         1 P8R       0.145400
      2 C5         -10.0340    32.5100    12.1980 c3         1 P8R       0.153100
      3 C6          -8.8640    32.2680    13.1850 c3         1 P8R       0.143600
      4 C7          -6.4740    31.8760    13.2090 c3         1 P8R       0.159600
      5 C8          -5.2710    31.7240    12.2530 c3         1 P8R       0.160100
      6 C10         -1.7110    31.0990    13.2560 c3         1 P8R       0.160600
      7 C13          4.2740    30.1750    12.3450 c3         1 P8R       0.160100
      8 C15          7.8370    29.5620    13.3480 c3         1 P8R       0.160600
      9 C17         11.4320    29.0350    12.4140 c3         1 P8R       0.160600
     10 C20         16.1990    28.2860    12.4600 c3         1 P8R       0.160600
     11 C21         18.5930    27.9110    12.4840 c3         1 P8R       0.160600
     12 C22         19.7640    27.6850    13.4630 c3         1 P8R       0.160100
     13 C24         23.3610    27.1690    12.5310 c3         1 P8R       0.159600
     14 C26         26.9260    26.5730    13.5350 c3         1 P8R       0.153100
     15 C11          0.6800    30.7110    13.2790 c3         1 P8R       0.160600
     16 C12          1.8830    30.5600    12.3220 c3         1 P8R       0.160100
     17 C14          5.4450    29.9440    13.3250 c3         1 P8R       0.160600
     18 C16          9.0400    29.4140    12.3910 c3         1 P8R       0.160600
     19 C18         12.6030    28.8070    13.3940 c3         1 P8R       0.160100
     20 C19         14.9960    28.4310    13.4170 c3         1 P8R       0.160100
     21 C23         22.1580    27.3120    13.4870 c3         1 P8R       0.160100
     22 C25         25.7550    26.7980    12.5540 c3         1 P8R       0.143600
     23 C27         29.3180    26.2030    13.5570 c3         1 P8R       0.145400
     24 C9          -2.8810    31.3330    12.2760 c3         1 P8R       0.160100
     25 O10         13.8130    28.6520    12.6260 os         1 P8R      -0.464500
     26 O11         17.3830    28.0650    13.2510 os         1 P8R      -0.465500
     27 O12         20.9740    27.5320    12.6960 os         1 P8R      -0.464500
     28 O13         24.5450    26.9510    13.3220 os         1 P8R      -0.464500
     29 O14         28.1360    26.4210    12.7670 os         1 P8R      -0.452000
     30 O3         -11.2400    32.8540    12.9200 os         1 P8R      -0.452000
     31 O4          -7.6560    32.1050    12.4180 os         1 P8R      -0.464500
     32 O5          -4.0890    31.4950    13.0440 os         1 P8R      -0.464500
     33 O6          -0.5020    30.9380    12.4880 os         1 P8R      -0.465500
     34 O7           3.0660    30.3340    13.1130 os         1 P8R      -0.464500
     35 O8           6.6540    29.7860    12.5570 os         1 P8R      -0.465500
     36 O9          10.2230    29.1920    13.1820 os         1 P8R      -0.465500
     37 H1         -12.7820    32.1340    14.1350 h1         1 P8R       0.029533
     38 H8         -12.0360    30.9170    13.0780 h1         1 P8R       0.029533
     39 H9         -11.1750    31.4970    14.5280 h1         1 P8R       0.029533
     40 H10        -10.1880    31.6140    11.5830 h1         1 P8R       0.045200
     41 H11         -9.7590    33.3330    11.5270 h1         1 P8R       0.045200
     42 H12         -8.7770    33.1270    13.8630 h1         1 P8R       0.032450
     43 H13         -9.0590    31.3680    13.7830 h1         1 P8R       0.032450
     44 H14         -6.2930    32.7200    13.8890 h1         1 P8R       0.035200
     45 H15         -6.5790    30.9620    13.8080 h1         1 P8R       0.035200
     46 H16         -5.4520    30.8800    11.5740 h1         1 P8R       0.035950
     47 H17         -5.1660    32.6380    11.6540 h1         1 P8R       0.035950
     48 H20         -1.6270    31.9580    13.9340 h1         1 P8R       0.036200
     49 H21         -1.9120    30.2000    13.8530 h1         1 P8R       0.036200
     50 H26          4.1920    29.3150    11.6670 h1         1 P8R       0.036450
     51 H27          4.4740    31.0740    11.7460 h1         1 P8R       0.036450
     52 H30          8.0150    30.4060    14.0270 h1         1 P8R       0.036200
     53 H31          7.7350    28.6470    13.9470 h1         1 P8R       0.036200
     54 H34         11.3530    28.1750    11.7370 h1         1 P8R       0.036200
     55 H35         11.6300    29.9340    11.8150 h1         1 P8R       0.036200
     56 H40         16.0240    27.4400    11.7820 h1         1 P8R       0.035700
     57 H41         16.2990    29.2000    11.8610 h1         1 P8R       0.035700
     58 H42         18.5150    27.0510    11.8060 h1         1 P8R       0.036200
     59 H43         18.7890    28.8110    11.8850 h1         1 P8R       0.036200
     60 H44         19.8420    28.5450    14.1420 h1         1 P8R       0.036200
     61 H45         19.5680    26.7850    14.0620 h1         1 P8R       0.036200
     62 H48         23.1870    26.3240    11.8520 h1         1 P8R       0.035200
     63 H49         23.4590    28.0840    11.9310 h1         1 P8R       0.035200
     64 H52         27.0010    27.4340    14.2130 h1         1 P8R       0.045200
     65 H53         26.7290    25.6740    14.1330 h1         1 P8R       0.045200
     66 H22          0.8600    31.5540    13.9580 h1         1 P8R       0.035700
     67 H23          0.5760    29.7960    13.8770 h1         1 P8R       0.035700
     68 H24          1.7030    29.7160    11.6430 h1         1 P8R       0.035700
     69 H25          1.9860    31.4740    11.7220 h1         1 P8R       0.035700
     70 H28          5.5260    30.8030    14.0030 h1         1 P8R       0.036200
     71 H29          5.2450    29.0450    13.9230 h1         1 P8R       0.036200
     72 H32          8.8620    28.5700    11.7120 h1         1 P8R       0.036200
     73 H33          9.1410    30.3290    11.7910 h1         1 P8R       0.036200
     74 H36         12.6820    29.6670    14.0720 h1         1 P8R       0.036450
     75 H37         12.4060    27.9080    13.9920 h1         1 P8R       0.036450
     76 H38         15.1720    29.2750    14.0960 h1         1 P8R       0.035700
     77 H39         14.8960    27.5160    14.0160 h1         1 P8R       0.035700
     78 H46         22.3320    28.1580    14.1660 h1         1 P8R       0.035950
     79 H47         22.0590    26.3980    14.0860 h1         1 P8R       0.035950
     80 H50         25.6770    25.9380    11.8770 h1         1 P8R       0.032450
     81 H51         25.9490    27.6980    11.9560 h1         1 P8R       0.032450
     82 H55         30.1960    26.0970    12.9070 h1         1 P8R       0.029533
     83 H2          29.4950    27.0470    14.2350 h1         1 P8R       0.029533
     84 H54         29.2230    25.2880    14.1560 h1         1 P8R       0.029533
     85 H18         -2.9650    30.4740    11.5980 h1         1 P8R       0.036200
     86 H19         -2.6790    32.2320    11.6780 h1         1 P8R       0.036200
@<TRIPOS>BOND
     1     1    30 1   
     2     1    37 1   
     3     1    38 1   
     4     1    39 1   
     5     2     3 1   
     6     2    30 1   
     7     2    40 1   
     8     2    41 1   
     9     3    31 1   
    10     3    42 1   
    11     3    43 1   
    12     4     5 1   
    13     4    31 1   
    14     4    44 1   
    15     4    45 1   
    16     5    32 1   
    17     5    46 1   
    18     5    47 1   
    19     6    24 1   
    20     6    33 1   
    21     6    48 1   
    22     6    49 1   
    23     7    17 1   
    24     7    34 1   
    25     7    50 1   
    26     7    51 1   
    27     8    18 1   
    28     8    35 1   
    29     8    52 1   
    30     8    53 1   
    31     9    19 1   
    32     9    36 1   
    33     9    54 1   
    34     9    55 1   
    35    10    20 1   
    36    10    26 1   
    37    10    56 1   
    38    10    57 1   
    39    11    12 1   
    40    11    26 1   
    41    11    58 1   
    42    11    59 1   
    43    12    27 1   
    44    12    60 1   
    45    12    61 1   
    46    13    21 1   
    47    13    28 1   
    48    13    62 1   
    49    13    63 1   
    50    14    22 1   
    51    14    29 1   
    52    14    64 1   
    53    14    65 1   
    54    15    16 1   
    55    15    33 1   
    56    15    66 1   
    57    15    67 1   
    58    16    34 1   
    59    16    68 1   
    60    16    69 1   
    61    17    35 1   
    62    17    70 1   
    63    17    71 1   
    64    18    36 1   
    65    18    72 1   
    66    18    73 1   
    67    19    25 1   
    68    19    74 1   
    69    19    75 1   
    70    20    25 1   
    71    20    76 1   
    72    20    77 1   
    73    21    27 1   
    74    21    78 1   
    75    21    79 1   
    76    22    28 1   
    77    22    80 1   
    78    22    81 1   
    79    23    29 1   
    80    23    82 1   
    81    23    83 1   
    82    23    84 1   
    83    24    32 1   
    84    24    85 1   
    85    24    86 1   
@<TRIPOS>SUBSTRUCTURE
     1 P8R         1 TEMP              0 ****  ****    0 ROOT
