@<TRIPOS>MOLECULE
P8S
   29    28     1     0     0
SMALL
bcc


@<TRIPOS>ATOM
      1 F8C         -5.4070    -1.5580    -0.2020 f          1 P8S      -0.207300
      2 C8          -5.3580    -0.2330    -0.2400 c3         1 P8S       0.641900
      3 F8A         -5.4830     0.1690    -1.4960 f          1 P8S      -0.207300
      4 F8B         -6.3780     0.2490     0.4580 f          1 P8S      -0.207300
      5 C7          -4.0370     0.2920     0.3840 c3         1 P8S       0.323600
      6 F7A         -4.0110     1.6210     0.2030 f          1 P8S      -0.184300
      7 F7B         -4.0820     0.0340     1.6980 f          1 P8S      -0.184300
      8 C6          -2.7410    -0.3400    -0.1990 c3         1 P8S       0.349600
      9 F6A         -2.6450    -1.5900     0.2780 f          1 P8S      -0.184800
     10 F6B         -2.8490    -0.3990    -1.5350 f          1 P8S      -0.184800
     11 C5          -1.4390     0.4490     0.1460 c3         1 P8S       0.352600
     12 F5B         -1.3980     1.5340    -0.6410 f          1 P8S      -0.184800
     13 F5A         -1.4930     0.8460     1.4260 f          1 P8S      -0.184800
     14 C4          -0.1290    -0.3790    -0.0500 c3         1 P8S       0.351600
     15 F4A         -0.0170    -1.2220     0.9870 f          1 P8S      -0.186300
     16 F4B         -0.2330    -1.0960    -1.1790 f          1 P8S      -0.186300
     17 C3           1.1590     0.4980    -0.1480 c3         1 P8S       0.345600
     18 F3B          1.1900     1.0420    -1.3750 f          1 P8S      -0.191300
     19 F3A          1.0830     1.4840     0.7590 f          1 P8S      -0.191300
     20 C2           2.4840    -0.2870     0.0970 c3         1 P8S       0.372600
     21 F2A          2.5870    -0.5060     1.4180 f          1 P8S      -0.191800
     22 F2B          2.4020    -1.4720    -0.5290 f          1 P8S      -0.191800
     23 C1           3.7610     0.4360    -0.3950 c3         1 P8S       0.296400
     24 F1B          3.8220     0.3150    -1.7330 f          1 P8S      -0.214800
     25 F1A          3.6740     1.7480    -0.0990 f          1 P8S      -0.214800
     26 S1           5.3540    -0.2120     0.3270 s6         1 P8S       1.192800
     27 O3           5.2210    -1.6650     0.2120 o          1 P8S      -0.643200
     28 O1           6.3530     0.3850    -0.5610 o          1 P8S      -0.643200
     29 O2           5.3560     0.3130     1.6910 o          1 P8S      -0.643200
@<TRIPOS>BOND
     1     1     2 1   
     2     2     3 1   
     3     2     4 1   
     4     2     5 1   
     5     5     6 1   
     6     5     7 1   
     7     5     8 1   
     8     8     9 1   
     9     8    10 1   
    10     8    11 1   
    11    11    12 1   
    12    11    13 1   
    13    11    14 1   
    14    14    15 1   
    15    14    16 1   
    16    14    17 1   
    17    17    18 1   
    18    17    19 1   
    19    17    20 1   
    20    20    21 1   
    21    20    22 1   
    22    20    23 1   
    23    23    24 1   
    24    23    25 1   
    25    23    26 1   
    26    26    27 1   
    27    26    28 1   
    28    26    29 1   
@<TRIPOS>SUBSTRUCTURE
     1 P8S         1 TEMP              0 ****  ****    0 ROOT
