@<TRIPOS>MOLECULE
P8S
   29    28     1     0     0
SMALL
No Charge or Current Charge


@<TRIPOS>ATOM
      1 F8C         -5.5330    -1.4930     0.6700 f          1 P8S      -0.086000
      2 C8          -5.4800    -0.3850    -0.1060 c3         1 P8S       0.278000
      3 F8A         -5.5800    -0.7930    -1.3930 f          1 P8S      -0.086000
      4 F8B         -6.5760     0.3600     0.1690 f          1 P8S      -0.086000
      5 C7          -4.1680     0.4320     0.1410 c3         1 P8S       0.081000
      6 F7A         -4.1970     1.5310    -0.6530 f          1 P8S      -0.063000
      7 F7B         -4.2000     0.9000     1.4130 f          1 P8S      -0.063000
      8 C6          -2.8150    -0.3480    -0.0910 c3         1 P8S       0.107000
      9 F6A         -2.7710    -1.3970     0.7650 f          1 P8S      -0.063500
     10 F6B         -2.8440    -0.9060    -1.3260 f          1 P8S      -0.063500
     11 C5          -1.4820     0.4940     0.0530 c3         1 P8S       0.110000
     12 F5B         -1.4780     1.4610    -0.8960 f          1 P8S      -0.063500
     13 F5A         -1.5130     1.1610     1.2320 f          1 P8S      -0.063500
     14 C4          -0.1250    -0.3170    -0.0310 c3         1 P8S       0.109000
     15 F4A         -0.0700    -1.1760     1.0150 f          1 P8S      -0.065000
     16 F4B         -0.1530    -1.1060    -1.1320 f          1 P8S      -0.065000
     17 C3           1.2060     0.5420    -0.0620 c3         1 P8S       0.103000
     18 F3B          1.2160     1.2800    -1.1990 f          1 P8S      -0.070000
     19 F3A          1.1670     1.4490     0.9440 f          1 P8S      -0.070000
     20 C2           2.5660    -0.2650     0.0380 c3         1 P8S       0.130000
     21 F2A          2.6140    -0.8720     1.2480 f          1 P8S      -0.070500
     22 F2B          2.5430    -1.2760    -0.8630 f          1 P8S      -0.070500
     23 C1           3.8880     0.5710    -0.1720 c3         1 P8S      -0.057000
     24 F1B          3.9130     1.0520    -1.4430 f          1 P8S      -0.093500
     25 F1A          3.8670     1.6660     0.6290 f          1 P8S      -0.093500
     26 S1           5.4490    -0.3870     0.1420 s6         1 P8S       1.303600
     27 O3           5.3720    -1.5500    -0.7570 o          1 P8S      -0.643200
     28 O1           6.5240     0.5570    -0.2060 o          1 P8S      -0.643200
     29 O2           5.4070    -0.7290     1.5730 o          1 P8S      -0.643200
@<TRIPOS>BOND
     1     1     2 1   
     2     2     3 1   
     3     2     4 1   
     4     2     5 1   
     5     5     6 1   
     6     5     7 1   
     7     5     8 1   
     8     8     9 1   
     9     8    10 1   
    10     8    11 1   
    11    11    12 1   
    12    11    13 1   
    13    11    14 1   
    14    14    15 1   
    15    14    16 1   
    16    14    17 1   
    17    17    18 1   
    18    17    19 1   
    19    17    20 1   
    20    20    21 1   
    21    20    22 1   
    22    20    23 1   
    23    23    24 1   
    24    23    25 1   
    25    23    26 1   
    26    26    27 1   
    27    26    28 1   
    28    26    29 1   
@<TRIPOS>SUBSTRUCTURE
     1 P8S         1 TEMP              0 ****  ****    0 ROOT
