@<TRIPOS>MOLECULE
P8V
   67    72     1     0     0
SMALL
No Charge or Current Charge


@<TRIPOS>ATOM
      1 C07        -28.1770    24.7480   -35.7840 cg         1 P8V      -0.098000
      2 C08        -27.2960    24.5820   -36.6110 ch         1 P8V      -0.081000
      3 C10        -25.5090    23.2630   -37.6680 ca         1 P8V      -0.090000
      4 C13        -25.0050    25.4150   -39.4620 ca         1 P8V      -0.105500
      5 C15        -24.6820    26.5400   -40.3730 cc         1 P8V       0.311500
      6 N16        -23.4590    26.6400   -40.8580 nd         1 P8V      -0.510800
      7 C20        -20.9370    29.7670   -43.1260 cc         1 P8V       0.256500
      8 C21        -20.1370    28.6370   -43.1200 cd         1 P8V      -0.243000
      9 C23        -20.4150    31.0880   -43.6820 c          1 P8V       0.631500
     10 C26        -24.7670    28.4730   -41.5410 cd         1 P8V      -0.064300
     11 C27        -25.5260    27.6340   -40.7620 cc         1 P8V      -0.233300
     12 C28        -27.0150    27.7650   -40.5010 c3         1 P8V       0.045200
     13 C29        -27.4000    28.5800   -39.2630 ca         1 P8V       0.015700
     14 C32        -28.1330    29.9960   -36.9240 ca         1 P8V      -0.337500
     15 C33        -26.9150    30.2720   -37.5700 ca         1 P8V       0.284000
     16 C40        -25.2420    29.6950   -42.3120 c3         1 P8V       0.007900
     17 C41        -25.7170    29.3290   -43.7170 cx         1 P8V      -0.133700
     18 C42        -24.8140    29.4440   -44.9240 cx         1 P8V      -0.124400
     19 C43        -25.9680    30.4030   -44.7490 cx         1 P8V      -0.124400
     20 C02        -31.0860    24.9720   -33.1820 cc         1 P8V      -0.210300
     21 C03        -30.6750    26.2440   -33.5020 cd         1 P8V      -0.126000
     22 C04        -29.6130    26.2780   -34.4460 cd         1 P8V      -0.095000
     23 C05        -29.2080    25.0320   -34.8500 cc         1 P8V      -0.083000
     24 C09        -26.2720    24.4380   -37.5910 ca         1 P8V       0.016000
     25 C11        -24.4760    23.1680   -38.6120 ca         1 P8V      -0.123000
     26 C12        -24.2170    24.2370   -39.4890 ca         1 P8V      -0.073000
     27 C14        -26.0110    25.5010   -38.4730 ca         1 P8V      -0.075000
     28 C18        -22.3530    28.3180   -42.2210 cd         1 P8V       0.482900
     29 C30        -28.6260    28.3190   -38.6220 ca         1 P8V      -0.161000
     30 C31        -28.9950    29.0190   -37.4620 ca         1 P8V       0.007000
     31 C34        -26.5510    29.5680   -38.7280 ca         1 P8V      -0.168000
     32 F35        -26.0700    31.2190   -37.1030 f          1 P8V      -0.151000
     33 N17        -23.5130    27.8310   -41.5600 na         1 P8V       0.162300
     34 N19        -22.2050    29.5840   -42.5910 nc         1 P8V      -0.623000
     35 N37        -29.1000    32.3120   -36.0030 n8         1 P8V      -1.006100
     36 O24        -21.1410    32.0770   -43.6730 o          1 P8V      -0.696000
     37 O25        -19.2740    31.1400   -44.1310 o          1 P8V      -0.696000
     38 O38        -27.4390    31.2050   -34.6240 o          1 P8V      -0.550000
     39 O39        -29.8110    30.2890   -34.8570 o          1 P8V      -0.550000
     40 S06        -30.1430    23.7660   -34.0620 ss         1 P8V       0.187000
     41 S22        -20.9600    27.2570   -42.4110 ss         1 P8V      -0.078400
     42 S36        -28.6030    30.8680   -35.4390 sy         1 P8V       1.144600
     43 H1         -25.7020    22.4350   -36.9880 ha         1 P8V       0.113000
     44 H2         -19.1200    28.5480   -43.4810 h4         1 P8V       0.169000
     45 H3         -27.4950    28.2220   -41.3740 hc         1 P8V       0.062200
     46 H4         -27.4620    26.7650   -40.4480 hc         1 P8V       0.062200
     47 H5         -24.4960    30.4950   -42.3400 hc         1 P8V       0.077700
     48 H6         -26.0840    30.1470   -41.7750 hc         1 P8V       0.077700
     49 H7         -26.4200    28.5000   -43.7110 hc         1 P8V       0.058700
     50 H8         -24.9000    28.6800   -45.6930 hc         1 P8V       0.078450
     51 H9         -23.8130    29.8440   -44.7930 hc         1 P8V       0.078450
     52 H10        -25.7340    31.4330   -44.4870 hc         1 P8V       0.078450
     53 H11        -26.8290    30.2860   -45.4040 hc         1 P8V       0.078450
     54 H12        -31.7740    23.9380   -31.4220 hc         1 P8V       0.043033
     55 H13        -32.6480    25.4420   -31.7680 hc         1 P8V       0.043033
     56 H14        -32.9540    23.9940   -32.7460 hc         1 P8V       0.043033
     57 H15        -31.1190    27.1400   -33.0770 ha         1 P8V       0.137000
     58 H16        -29.1670    27.1990   -34.8110 ha         1 P8V       0.144000
     59 H17        -23.8710    22.2660   -38.6650 ha         1 P8V       0.111000
     60 H18        -23.4090    24.1330   -40.2090 ha         1 P8V       0.131000
     61 H19        -26.5750    26.4110   -38.3350 ha         1 P8V       0.127000
     62 H20        -29.2970    27.5610   -39.0200 ha         1 P8V       0.122000
     63 H21        -29.9480    28.7910   -36.9850 ha         1 P8V       0.138000
     64 H22        -25.6000    29.7970   -39.1990 ha         1 P8V       0.156000
     65 H23        -30.0000    32.3890   -35.5360 hn         1 P8V       0.474500
     66 H24        -28.5150    32.9310   -35.4470 hn         1 P8V       0.474500
     67 C01        -32.1750    24.5660   -32.2280 c3         1 P8V      -0.017800
@<TRIPOS>BOND
     1     1     2 3   
     2     1    23 1   
     3     2    24 1   
     4     3    24 ar  
     5     3    25 ar  
     6     3    43 1   
     7     4     5 1   
     8     4    26 ar  
     9     4    27 ar  
    10     5     6 2   
    11     5    11 1   
    12     6    33 1   
    13     7     8 2   
    14     7     9 1   
    15     7    34 1   
    16     8    41 1   
    17     8    44 1   
    18     9    36 1   
    19     9    37 1   
    20    10    11 2   
    21    10    16 1   
    22    10    33 1   
    23    11    12 1   
    24    12    13 1   
    25    12    45 1   
    26    12    46 1   
    27    13    29 ar  
    28    13    31 ar  
    29    14    15 ar  
    30    14    30 ar  
    31    14    42 1   
    32    15    31 ar  
    33    15    32 1   
    34    16    17 1   
    35    16    47 1   
    36    16    48 1   
    37    17    18 1   
    38    17    19 1   
    39    17    49 1   
    40    18    19 1   
    41    18    50 1   
    42    18    51 1   
    43    19    52 1   
    44    19    53 1   
    45    20    21 2   
    46    20    40 1   
    47    20    67 1   
    48    21    22 1   
    49    21    57 1   
    50    22    23 2   
    51    22    58 1   
    52    23    40 1   
    53    24    27 ar  
    54    25    26 ar  
    55    25    59 1   
    56    26    60 1   
    57    27    61 1   
    58    28    33 1   
    59    28    34 2   
    60    28    41 1   
    61    29    30 ar  
    62    29    62 1   
    63    30    63 1   
    64    31    64 1   
    65    35    42 1   
    66    35    65 1   
    67    35    66 1   
    68    38    42 2   
    69    39    42 2   
    70    54    67 1   
    71    55    67 1   
    72    56    67 1   
@<TRIPOS>SUBSTRUCTURE
     1 P8V         1 TEMP              0 ****  ****    0 ROOT
