@<TRIPOS>MOLECULE
P8V
   67    72     1     0     0
SMALL
bcc


@<TRIPOS>ATOM
      1 C07        -28.1130    25.0350   -35.7070 cg         1 P8V      -0.098000
      2 C08        -27.3200    24.8470   -36.6000 ch         1 P8V      -0.081000
      3 C10        -25.8190    23.4170   -37.9190 ca         1 P8V      -0.108000
      4 C13        -25.1460    25.6170   -39.5100 ca         1 P8V      -0.105500
      5 C15        -24.7810    26.7700   -40.3410 cc         1 P8V       0.376800
      6 N16        -23.5390    26.9250   -40.7390 nd         1 P8V      -0.510800
      7 C20        -20.7440    29.5900   -43.0040 cc         1 P8V       0.321800
      8 C21        -19.9730    28.5700   -42.5440 cd         1 P8V      -0.181400
      9 C23        -20.2240    30.7490   -43.8350 c          1 P8V       0.842100
     10 C26        -24.7680    28.6020   -41.5960 cd         1 P8V      -0.013600
     11 C27        -25.6070    27.8030   -40.8540 cc         1 P8V      -0.298600
     12 C28        -27.0840    27.9660   -40.7040 c3         1 P8V       0.045200
     13 C29        -27.5440    28.6180   -39.4220 ca         1 P8V       0.015700
     14 C32        -28.4480    29.7800   -37.0480 ca         1 P8V      -0.337500
     15 C33        -27.1920    30.0770   -37.5590 ca         1 P8V       0.248900
     16 C40        -25.1280    29.8000   -42.4110 c3         1 P8V       0.007900
     17 C41        -25.6110    29.4260   -43.7970 cx         1 P8V      -0.133700
     18 C42        -24.6590    29.3490   -44.9500 cx         1 P8V      -0.124400
     19 C43        -25.6530    30.4710   -44.8680 cx         1 P8V      -0.124400
     20 C02        -30.6920    24.9820   -32.8280 cc         1 P8V      -0.065400
     21 C03        -30.4660    26.2870   -33.1640 cd         1 P8V      -0.144000
     22 C04        -29.5300    26.4490   -34.2120 cd         1 P8V      -0.113000
     23 C05        -29.0400    25.2550   -34.6740 cc         1 P8V       0.061900
     24 C09        -26.3950    24.6640   -37.6630 ca         1 P8V       0.016000
     25 C11        -24.9110    23.2800   -38.9560 ca         1 P8V      -0.141000
     26 C12        -24.5730    24.3670   -39.7480 ca         1 P8V      -0.091000
     27 C14        -26.0490    25.7560   -38.4630 ca         1 P8V      -0.093000
     28 C18        -22.2980    28.4280   -41.9890 cd         1 P8V       0.482900
     29 C30        -28.8080    28.3180   -38.9180 ca         1 P8V      -0.179000
     30 C31        -29.2580    28.8910   -37.7430 ca         1 P8V      -0.011000
     31 C34        -26.7360    29.5140   -38.7310 ca         1 P8V      -0.186000
     32 F35        -26.3990    30.9250   -36.9070 f          1 P8V      -0.115900
     33 N17        -23.5320    28.0290   -41.4940 na         1 P8V       0.111600
     34 N19        -22.0730    29.4900   -42.6710 nc         1 P8V      -0.623000
     35 N37        -29.0730    32.0760   -35.8940 n8         1 P8V      -0.895700
     36 O24        -21.0730    31.5570   -44.2480 o          1 P8V      -0.801300
     37 O25        -18.9930    30.7600   -44.0190 o          1 P8V      -0.801300
     38 O38        -27.9730    30.3280   -34.5040 o          1 P8V      -0.620800
     39 O39        -30.3180    29.9050   -35.2520 o          1 P8V      -0.620800
     40 S06        -29.7440    23.9300   -33.8070 ss         1 P8V      -0.102800
     41 S22        -20.9180    27.4330   -41.6690 ss         1 P8V      -0.223300
     42 S36        -29.0040    30.4730   -35.5180 sy         1 P8V       1.286200
     43 H1         -26.0820    22.5660   -37.3050 ha         1 P8V       0.131000
     44 H2         -18.9130    28.4280   -42.6740 h4         1 P8V       0.187000
     45 H3         -27.4750    28.5550   -41.5390 hc         1 P8V       0.062200
     46 H4         -27.5690    26.9910   -40.7900 hc         1 P8V       0.062200
     47 H5         -24.2870    30.4880   -42.4820 hc         1 P8V       0.077700
     48 H6         -25.9250    30.3310   -41.8850 hc         1 P8V       0.077700
     49 H7         -26.4280    28.7110   -43.8060 hc         1 P8V       0.058700
     50 H8         -24.8170    28.5770   -45.6920 hc         1 P8V       0.078450
     51 H9         -23.6210    29.5880   -44.7630 hc         1 P8V       0.078450
     52 H10        -25.2800    31.4590   -44.6260 hc         1 P8V       0.078450
     53 H11        -26.4930    30.4690   -45.5500 hc         1 P8V       0.078450
     54 H12        -31.0670    23.8630   -31.0340 hc         1 P8V       0.043033
     55 H13        -32.1110    25.2630   -31.2760 hc         1 P8V       0.043033
     56 H14        -32.3700    23.7920   -32.2120 hc         1 P8V       0.043033
     57 H15        -30.9620    27.1120   -32.6710 ha         1 P8V       0.155000
     58 H16        -29.2230    27.4040   -34.6120 ha         1 P8V       0.162000
     59 H17        -24.4650    22.3140   -39.1520 ha         1 P8V       0.129000
     60 H18        -23.8710    24.2430   -40.5620 ha         1 P8V       0.149000
     61 H19        -26.4770    26.7210   -38.2330 ha         1 P8V       0.145000
     62 H20        -29.4440    27.6150   -39.4420 ha         1 P8V       0.140000
     63 H21        -30.2380    28.6390   -37.3610 ha         1 P8V       0.156000
     64 H22        -25.7430    29.7610   -39.0860 ha         1 P8V       0.174000
     65 H23        -29.8950    32.3210   -36.4360 hn         1 P8V       0.419300
     66 H24        -28.9940    32.6620   -35.0690 hn         1 P8V       0.419300
     67 C01        -31.6070    24.4430   -31.7830 c3         1 P8V      -0.017800
@<TRIPOS>BOND
     1     1     2 3   
     2     1    23 1   
     3     2    24 1   
     4     3    24 ar  
     5     3    25 ar  
     6     3    43 1   
     7     4     5 1   
     8     4    26 ar  
     9     4    27 ar  
    10     5     6 2   
    11     5    11 1   
    12     6    33 1   
    13     7     8 2   
    14     7     9 1   
    15     7    34 1   
    16     8    41 1   
    17     8    44 1   
    18     9    36 1   
    19     9    37 1   
    20    10    11 2   
    21    10    16 1   
    22    10    33 1   
    23    11    12 1   
    24    12    13 1   
    25    12    45 1   
    26    12    46 1   
    27    13    29 ar  
    28    13    31 ar  
    29    14    15 ar  
    30    14    30 ar  
    31    14    42 1   
    32    15    31 ar  
    33    15    32 1   
    34    16    17 1   
    35    16    47 1   
    36    16    48 1   
    37    17    18 1   
    38    17    19 1   
    39    17    49 1   
    40    18    19 1   
    41    18    50 1   
    42    18    51 1   
    43    19    52 1   
    44    19    53 1   
    45    20    21 2   
    46    20    40 1   
    47    20    67 1   
    48    21    22 1   
    49    21    57 1   
    50    22    23 2   
    51    22    58 1   
    52    23    40 1   
    53    24    27 ar  
    54    25    26 ar  
    55    25    59 1   
    56    26    60 1   
    57    27    61 1   
    58    28    33 1   
    59    28    34 2   
    60    28    41 1   
    61    29    30 ar  
    62    29    62 1   
    63    30    63 1   
    64    31    64 1   
    65    35    42 1   
    66    35    65 1   
    67    35    66 1   
    68    38    42 2   
    69    39    42 2   
    70    54    67 1   
    71    55    67 1   
    72    56    67 1   
@<TRIPOS>SUBSTRUCTURE
     1 P8V         1 TEMP              0 ****  ****    0 ROOT
