@<TRIPOS>MOLECULE
P8W
   42    44     1     0     0
SMALL
No Charge or Current Charge


@<TRIPOS>ATOM
      1 C13          2.8490    11.4800     8.4050 ca         1 P8W      -0.103000
      2 C15          3.9180    10.7290     8.9180 ca         1 P8W      -0.102000
      3 C17          5.1240    11.3610     9.2460 ca         1 P8W      -0.106000
      4 C21          4.2020    13.5210     8.5210 cp         1 P8W      -0.033000
      5 C22          4.4200    14.9840     8.3140 cp         1 P8W      -0.048000
      6 C05         -0.8310    13.1460    10.4410 cc         1 P8W      -0.305400
      7 C06          0.3120    13.6240     9.8130 cd         1 P8W       0.130400
      8 N07          0.5350    13.3380     8.4780 nu         1 P8W      -0.820200
      9 C12          2.9670    12.8750     8.2120 ca         1 P8W      -0.106300
     10 C19          5.2610    12.7440     9.0490 ca         1 P8W      -0.096000
     11 C23          4.2810    15.5730     7.0340 ca         1 P8W      -0.100500
     12 C25          4.4980    16.9490     6.8450 ca         1 P8W      -0.109500
     13 C27          4.8660    17.7580     7.9330 ca         1 P8W      -0.105000
     14 C29          5.0230    17.1890     9.2070 ca         1 P8W      -0.109500
     15 C31          4.8060    15.8130     9.3950 ca         1 P8W      -0.100500
     16 C33          1.2570    14.4310    10.5770 cd         1 P8W       0.314500
     17 N35          1.0690    14.7350    11.8580 nc         1 P8W      -0.406300
     18 N36         -0.0720    14.2670    12.4750 n          1 P8W      -0.132800
     19 C37         -0.2130    14.6510    13.8960 c3         1 P8W       0.099300
     20 C41         -1.0840    13.4780    11.8730 c          1 P8W       0.557200
     21 O42         -2.0780    13.1120    12.4920 o          1 P8W      -0.565000
     22 H1           1.9160    10.9740     8.1660 ha         1 P8W       0.117000
     23 H2           3.8080     9.6560     9.0650 ha         1 P8W       0.117000
     24 H3           5.9530    10.7820     9.6460 ha         1 P8W       0.117000
     25 H4          -2.3430    11.5700    10.4790 hc         1 P8W       0.041367
     26 H5          -2.7130    12.9180     9.3910 hc         1 P8W       0.041367
     27 H6          -1.5050    11.7000     8.9470 hc         1 P8W       0.041367
     28 H7          -0.1970    12.8010     8.0110 hn         1 P8W       0.495000
     29 H8           1.9240    14.7280     7.7260 h1         1 P8W       0.065700
     30 H9           1.5860    13.3800     6.6380 h1         1 P8W       0.065700
     31 H10          6.2060    13.2230     9.2950 ha         1 P8W       0.119000
     32 H11          4.0080    14.9540     6.1830 ha         1 P8W       0.115500
     33 H12          4.3830    17.3870     5.8550 ha         1 P8W       0.115500
     34 H13          5.0340    18.8230     7.7870 ha         1 P8W       0.115000
     35 H14          5.3120    17.8140    10.0500 ha         1 P8W       0.115500
     36 H15          4.9290    15.3830    10.3860 ha         1 P8W       0.115500
     37 H16          2.1640    14.8400    10.1550 h4         1 P8W       0.045800
     38 H17          0.6460    15.2510    14.2240 h1         1 P8W       0.055033
     39 H18         -1.1280    15.2410    14.0280 h1         1 P8W       0.055033
     40 H19         -0.2730    13.7490    14.5170 h1         1 P8W       0.055033
     41 C09          1.7460    13.6460     7.6920 c3         1 P8W       0.266100
     42 C01         -1.9020    12.2910     9.7800 c3         1 P8W      -0.027900
@<TRIPOS>BOND
     1     1     2 ar  
     2     1     9 ar  
     3     1    22 1   
     4     2     3 ar  
     5     2    23 1   
     6     3    10 ar  
     7     3    24 1   
     8     4     5 1   
     9     4     9 ar  
    10     4    10 ar  
    11     5    11 ar  
    12     5    15 ar  
    13     6     7 2   
    14     6    20 1   
    15     6    42 1   
    16     7     8 1   
    17     7    16 1   
    18     8    28 1   
    19     8    41 1   
    20     9    41 1   
    21    10    31 1   
    22    11    12 ar  
    23    11    32 1   
    24    12    13 ar  
    25    12    33 1   
    26    13    14 ar  
    27    13    34 1   
    28    14    15 ar  
    29    14    35 1   
    30    15    36 1   
    31    16    17 2   
    32    16    37 1   
    33    17    18 1   
    34    18    19 1   
    35    18    20 1   
    36    19    38 1   
    37    19    39 1   
    38    19    40 1   
    39    20    21 2   
    40    25    42 1   
    41    26    42 1   
    42    27    42 1   
    43    29    41 1   
    44    30    41 1   
@<TRIPOS>SUBSTRUCTURE
     1 P8W         1 TEMP              0 ****  ****    0 ROOT
