@<TRIPOS>MOLECULE
P8W
   42    44     1     0     0
SMALL
abcg2


@<TRIPOS>ATOM
      1 C13          2.7070    11.9300     8.9810 ca         1 P8W      -0.103000
      2 C15          3.7640    11.0620     9.2170 ca         1 P8W      -0.102000
      3 C17          5.0680    11.5010     9.0510 ca         1 P8W      -0.106000
      4 C21          4.2470    13.6900     8.4200 cp         1 P8W      -0.033000
      5 C22          4.5660    15.0720     7.9800 cp         1 P8W      -0.048000
      6 C05         -0.9720    13.1270    10.5950 cc         1 P8W      -0.305400
      7 C06          0.1890    13.6940    10.1170 cd         1 P8W       0.130400
      8 N07          0.4900    13.7310     8.7980 nu         1 P8W      -0.820200
      9 C12          2.9280    13.2450     8.5850 ca         1 P8W      -0.106300
     10 C19          5.3000    12.8080     8.6500 ca         1 P8W      -0.096000
     11 C23          5.1240    15.2900     6.7220 ca         1 P8W      -0.100500
     12 C25          5.4570    16.5730     6.3070 ca         1 P8W      -0.109500
     13 C27          5.2340    17.6570     7.1460 ca         1 P8W      -0.105000
     14 C29          4.6850    17.4490     8.4040 ca         1 P8W      -0.109500
     15 C31          4.3560    16.1660     8.8180 ca         1 P8W      -0.100500
     16 C33          1.0870    14.2660    11.0750 cd         1 P8W       0.314500
     17 N35          0.8540    14.2710    12.3430 nc         1 P8W      -0.406300
     18 N36         -0.2550    13.7200    12.7950 n          1 P8W      -0.132800
     19 C37         -0.4480    13.7530    14.2340 c3         1 P8W       0.099300
     20 C41         -1.2240    13.1160    12.0060 c          1 P8W       0.557200
     21 O42         -2.2110    12.6190    12.5490 o          1 P8W      -0.565000
     22 H1           1.6930    11.5680     9.1000 ha         1 P8W       0.117000
     23 H2           3.5640    10.0440     9.5250 ha         1 P8W       0.117000
     24 H3           5.9000    10.8330     9.2310 ha         1 P8W       0.117000
     25 H4          -2.8340    12.1380    10.2180 hc         1 P8W       0.041367
     26 H5          -2.3400    13.2360     8.9360 hc         1 P8W       0.041367
     27 H6          -1.5500    11.6750     9.1100 hc         1 P8W       0.041367
     28 H7          -0.1110    13.2240     8.1700 hn         1 P8W       0.495000
     29 H8           1.9680    15.1800     8.6010 h1         1 P8W       0.065700
     30 H9           1.6430    14.2320     7.1870 h1         1 P8W       0.065700
     31 H10          6.3170    13.1590     8.5200 ha         1 P8W       0.119000
     32 H11          5.2970    14.4500     6.0610 ha         1 P8W       0.115500
     33 H12          5.8880    16.7250     5.3260 ha         1 P8W       0.115500
     34 H13          5.4910    18.6570     6.8220 ha         1 P8W       0.115000
     35 H14          4.5170    18.2860     9.0690 ha         1 P8W       0.115500
     36 H15          3.9420    16.0130     9.8080 ha         1 P8W       0.115500
     37 H16          2.0160    14.7330    10.7800 h4         1 P8W       0.045800
     38 H17          0.4030    14.2650    14.6710 h1         1 P8W       0.055033
     39 H18         -1.3600    14.2880    14.4930 h1         1 P8W       0.055033
     40 H19         -0.5090    12.7460    14.6420 h1         1 P8W       0.055033
     41 C09          1.7590    14.1620     8.2700 c3         1 P8W       0.266100
     42 C01         -1.9750    12.5140     9.6700 c3         1 P8W      -0.027900
@<TRIPOS>BOND
     1     1     2 ar  
     2     1     9 ar  
     3     1    22 1   
     4     2     3 ar  
     5     2    23 1   
     6     3    10 ar  
     7     3    24 1   
     8     4     5 1   
     9     4     9 ar  
    10     4    10 ar  
    11     5    11 ar  
    12     5    15 ar  
    13     6     7 2   
    14     6    20 1   
    15     6    42 1   
    16     7     8 1   
    17     7    16 1   
    18     8    28 1   
    19     8    41 1   
    20     9    41 1   
    21    10    31 1   
    22    11    12 ar  
    23    11    32 1   
    24    12    13 ar  
    25    12    33 1   
    26    13    14 ar  
    27    13    34 1   
    28    14    15 ar  
    29    14    35 1   
    30    15    36 1   
    31    16    17 2   
    32    16    37 1   
    33    17    18 1   
    34    18    19 1   
    35    18    20 1   
    36    19    38 1   
    37    19    39 1   
    38    19    40 1   
    39    20    21 2   
    40    25    42 1   
    41    26    42 1   
    42    27    42 1   
    43    29    41 1   
    44    30    41 1   
@<TRIPOS>SUBSTRUCTURE
     1 P8W         1 TEMP              0 ****  ****    0 ROOT
