@<TRIPOS>MOLECULE
P8X
  113   117     1     0     0
SMALL
No Charge or Current Charge


@<TRIPOS>ATOM
      1 C1          -0.0170    36.4450    12.6020 c5         1 P8X       0.246200
      2 C2          -0.5510    37.9920    12.5990 c5         1 P8X      -0.012000
      3 C3          -1.5400    37.9750    13.8730 c5         1 P8X      -0.073500
      4 C4          -1.8990    36.5050    13.8920 c2         1 P8X       0.256800
      5 C5          -2.6550    35.9050    14.8640 ce         1 P8X      -0.491600
      6 C6          -2.8110    34.4250    15.0950 ce         1 P8X       0.586600
      7 C7          -3.9170    33.8260    15.9860 c5         1 P8X      -0.115300
      8 C8          -3.1490    32.4470    16.3280 c5         1 P8X      -0.072500
      9 C9          -2.0870    32.3620    15.1840 cf         1 P8X       0.204400
     10 C10         -1.4570    31.2020    14.8630 ce         1 P8X      -0.397600
     11 C11         -0.4340    31.0590    13.8130 ce         1 P8X       0.465600
     12 C12          0.8070    30.1900    14.0780 c5         1 P8X      -0.115100
     13 C13          1.5360    30.5940    12.7690 c2         1 P8X      -0.149400
     14 C14          0.7870    31.4690    12.0530 cf         1 P8X       0.101400
     15 C15          1.0860    32.1580    10.7110 c3         1 P8X      -0.022800
     16 C16          1.1100    33.6940    10.7990 c2         1 P8X       0.406300
     17 C17          2.2500    34.5330    10.2310 c5         1 P8X      -0.117300
     18 C18          1.8210    35.9990    10.6800 c5         1 P8X      -0.063700
     19 C19          0.3070    35.8060    11.1250 c5         1 P8X       0.096500
     20 C20          1.0200    36.0530    13.7100 c3         1 P8X      -0.110100
     21 N21         -1.2690    35.7560    12.9600 nu         1 P8X      -0.743200
     22 N22         -1.9330    33.6030    14.6230 nf         1 P8X      -0.692300
     23 N23         -0.4260    31.7070    12.6900 nf         1 P8X      -0.524300
     24 N24          0.0710    34.3230    11.2050 n2         1 P8X      -0.566900
     25 C25          0.6210    39.0190    12.7270 c3         1 P8X      -0.074100
     26 C26         -1.3680    38.3660    11.2890 c3         1 P8X      -0.202400
     27 C27         -1.9820    39.7870    11.2700 c          1 P8X       0.714000
     28 O28         -3.1150    39.9410    11.6970 o          1 P8X      -0.768000
     29 O29         -1.3360    40.6940    10.7640 o          1 P8X      -0.768000
     30 C30         -1.0050    38.4940    15.2580 c3         1 P8X      -0.037400
     31 C31         -1.1460    40.0240    15.5040 c3         1 P8X      -0.198400
     32 C32         -0.6590    40.3980    16.9180 c          1 P8X       0.711000
     33 O33         -1.4620    40.3560    17.8370 o          1 P8X      -0.784500
     34 O34          0.5190    40.6810    17.0700 o          1 P8X      -0.784500
     35 C36         -4.2710    34.7000    17.2300 c3         1 P8X      -0.058100
     36 C37         -5.2300    33.5240    15.1760 c3         1 P8X      -0.180400
     37 C38         -5.8440    34.7690    14.4910 c          1 P8X       0.718000
     38 O39         -6.6850    35.4140    15.1000 o          1 P8X      -0.753000
     39 O40         -5.4960    35.0320    13.3510 o          1 P8X      -0.753000
     40 C41         -2.4740    32.3990    17.7400 c3         1 P8X      -0.043400
     41 C42         -1.7820    31.0680    18.1330 c3         1 P8X      -0.198400
     42 C43         -1.4450    31.0640    19.6360 c          1 P8X       0.714000
     43 O44         -2.2810    30.6330    20.4160 o          1 P8X      -0.777000
     44 O45         -0.3740    31.5290    19.9920 o          1 P8X      -0.777000
     45 C46          1.5840    30.6390    15.3430 c3         1 P8X      -0.052100
     46 C47          0.4670    28.6820    14.1720 c3         1 P8X      -0.052100
     47 C48          2.9430    30.1050    12.4230 c3         1 P8X      -0.005200
     48 C49          3.0390    28.7100    11.7510 c3         1 P8X      -0.184400
     49 C50          2.2890    28.6660    10.4040 c          1 P8X       0.711000
     50 O51          1.1590    28.2020    10.3820 o          1 P8X      -0.761000
     51 O52          2.8710    29.0700     9.4090 o          1 P8X      -0.761000
     52 C54          2.2700    34.3140     8.6870 c3         1 P8X      -0.071100
     53 C55          3.6800    34.1200    10.7860 c3         1 P8X      -0.043400
     54 C56          3.9120    33.9970    12.3390 c3         1 P8X      -0.198400
     55 C57          5.3740    33.6130    12.6280 c          1 P8X       0.718000
     56 O58          6.1910    34.5100    12.7680 o          1 P8X      -0.779500
     57 O59          5.6700    32.4300    12.6600 o          1 P8X      -0.779500
     58 C60          2.0760    37.1670     9.6610 c3         1 P8X      -0.190400
     59 C61          3.5560    37.6100     9.6310 c          1 P8X       0.719000
     60 O62          4.2860    37.1750     8.7540 o          1 P8X      -0.773500
     61 O63          3.9400    38.3890    10.4910 o          1 P8X      -0.773500
     62 C64          0.0960    31.6880     9.6140 c3         1 P8X      -0.071100
     63 H5          -3.1590    36.5310    15.5910 ha         1 P8X       0.192000
     64 H8          -3.8370    31.5940    16.2880 hc         1 P8X       0.022700
     65 H20          1.3150    35.0020    13.6180 hc         1 P8X       0.043700
     66 H30         -1.5570    38.0000    16.0640 hc         1 P8X       0.038200
     67 H60          1.7440    36.8570     8.6650 hc         1 P8X       0.025200
     68 H20A         1.9330    36.6550    13.6550 hc         1 P8X       0.043700
     69 H30A         0.0360    38.2000    15.4150 hc         1 P8X       0.038200
     70 H60A         1.4860    38.0090    10.0190 hc         1 P8X       0.025200
     71 H20B         0.6260    36.1680    14.7240 hc         1 P8X       0.043700
     72 H10         -1.6770    30.3100    15.4410 ha         1 P8X       0.146000
     73 H31         -0.5270    40.5280    14.7590 hc         1 P8X       0.033200
     74 H41         -1.7420    33.2110    17.8330 hc         1 P8X       0.041200
     75 H31A        -2.2160    40.2440    15.4060 hc         1 P8X       0.033200
     76 H41A        -3.2400    32.5860    18.5020 hc         1 P8X       0.041200
     77 H15          2.0700    31.8330    10.3690 hc         1 P8X       0.099700
     78 H18          2.4170    36.2910    11.5450 hc         1 P8X       0.089700
     79 H19         -0.3720    36.1880    10.3550 h1         1 P8X       0.066700
     80 HN21        -1.2340    34.7510    13.1650 hn         1 P8X       0.570000
     81 H42         -2.5000    30.2710    17.9020 hc         1 P8X       0.019200
     82 H42A        -0.8600    31.0230    17.5450 hc         1 P8X       0.019200
     83 H3          -2.4590    38.5350    13.6860 hc         1 P8X       0.120700
     84 H54          3.0430    34.9120     8.1940 hc         1 P8X       0.020033
     85 H64          0.3550    32.1160     8.6400 hc         1 P8X       0.024367
     86 H54A         2.4810    33.2690     8.4300 hc         1 P8X       0.020033
     87 H64A         0.1130    30.5980     9.5180 hc         1 P8X       0.024367
     88 H54B         1.3040    34.5690     8.2340 hc         1 P8X       0.020033
     89 H64B        -0.9310    31.9900     9.8540 hc         1 P8X       0.024367
     90 H25          0.2630    40.0510    12.7620 hc         1 P8X       0.033033
     91 H55          3.9710    33.1580    10.3460 hc         1 P8X       0.046200
     92 H25A         1.2200    38.8620    13.6290 hc         1 P8X       0.033033
     93 H55A         4.4170    34.8350    10.4020 hc         1 P8X       0.046200
     94 H25B         1.3180    38.9600    11.8910 hc         1 P8X       0.033033
     95 H26         -0.6710    38.3090    10.4490 hc         1 P8X       0.034700
     96 H36         -4.9340    34.1640    17.9190 hc         1 P8X       0.025367
     97 H46          2.5270    30.0920    15.4520 hc         1 P8X       0.024200
     98 H56          3.7020    34.9810    12.7700 hc         1 P8X       0.035200
     99 H26A        -2.1860    37.6400    11.2130 hc         1 P8X       0.034700
    100 H36A        -3.3740    34.9960    17.7860 hc         1 P8X       0.025367
    101 H46A         1.8200    31.7090    15.3020 hc         1 P8X       0.024200
    102 H56A         3.2340    33.2100    12.6870 hc         1 P8X       0.035200
    103 H36B        -4.7810    35.6270    16.9500 hc         1 P8X       0.025367
    104 H46B         1.0000    30.4620    16.2530 hc         1 P8X       0.024200
    105 H37         -4.9440    32.8030    14.3990 hc         1 P8X       0.004700
    106 H47          1.3660    28.0770    14.3350 hc         1 P8X       0.024200
    107 H37A        -5.9450    33.1060    15.8960 hc         1 P8X       0.004700
    108 H47A        -0.2120    28.4780    15.0080 hc         1 P8X       0.024200
    109 H47B        -0.0200    28.3290    13.2560 hc         1 P8X       0.024200
    110 H48          3.4450    30.8290    11.7720 hc         1 P8X       0.056700
    111 H48A         3.5560    30.0860    13.3320 hc         1 P8X       0.056700
    112 H49          4.1150    28.5740    11.5800 hc         1 P8X      -0.007300
    113 H49A         2.6270    27.9800    12.4550 hc         1 P8X      -0.007300
@<TRIPOS>BOND
     1     1     2 1   
     2     1    19 1   
     3     1    20 1   
     4     1    21 1   
     5     2     3 1   
     6     2    25 1   
     7     2    26 1   
     8     3     4 1   
     9     3    30 1   
    10     3    83 1   
    11     4     5 2   
    12     4    21 1   
    13     5     6 1   
    14     5    63 1   
    15     6     7 1   
    16     6    22 2   
    17     7     8 1   
    18     7    35 1   
    19     7    36 1   
    20     8     9 1   
    21     8    40 1   
    22     8    64 1   
    23     9    10 2   
    24     9    22 1   
    25    10    11 1   
    26    10    72 1   
    27    11    12 1   
    28    11    23 2   
    29    12    13 1   
    30    12    45 1   
    31    12    46 1   
    32    13    14 2   
    33    13    47 1   
    34    14    15 1   
    35    14    23 1   
    36    15    16 1   
    37    15    62 1   
    38    15    77 1   
    39    16    17 1   
    40    16    24 2   
    41    17    18 1   
    42    17    52 1   
    43    17    53 1   
    44    18    19 1   
    45    18    58 1   
    46    18    78 1   
    47    19    24 1   
    48    19    79 1   
    49    20    65 1   
    50    20    68 1   
    51    20    71 1   
    52    21    80 1   
    53    25    90 1   
    54    25    92 1   
    55    25    94 1   
    56    26    27 1   
    57    26    95 1   
    58    26    99 1   
    59    27    28 1   
    60    27    29 1   
    61    30    31 1   
    62    30    66 1   
    63    30    69 1   
    64    31    32 1   
    65    31    73 1   
    66    31    75 1   
    67    32    33 1   
    68    32    34 1   
    69    35    96 1   
    70    35   100 1   
    71    35   103 1   
    72    36    37 1   
    73    36   105 1   
    74    36   107 1   
    75    37    38 1   
    76    37    39 1   
    77    40    41 1   
    78    40    74 1   
    79    40    76 1   
    80    41    42 1   
    81    41    81 1   
    82    41    82 1   
    83    42    43 1   
    84    42    44 1   
    85    45    97 1   
    86    45   101 1   
    87    45   104 1   
    88    46   106 1   
    89    46   108 1   
    90    46   109 1   
    91    47    48 1   
    92    47   110 1   
    93    47   111 1   
    94    48    49 1   
    95    48   112 1   
    96    48   113 1   
    97    49    50 1   
    98    49    51 1   
    99    52    84 1   
   100    52    86 1   
   101    52    88 1   
   102    53    54 1   
   103    53    91 1   
   104    53    93 1   
   105    54    55 1   
   106    54    98 1   
   107    54   102 1   
   108    55    56 1   
   109    55    57 1   
   110    58    59 1   
   111    58    67 1   
   112    58    70 1   
   113    59    60 1   
   114    59    61 1   
   115    62    85 1   
   116    62    87 1   
   117    62    89 1   
@<TRIPOS>SUBSTRUCTURE
     1 P8X         1 TEMP              0 ****  ****    0 ROOT
