@<TRIPOS>MOLECULE
P8X
  113   117     1     0     0
SMALL
abcg2


@<TRIPOS>ATOM
      1 C1           0.1830    36.3860    12.7290 c5         1 P8X       0.246200
      2 C2          -0.3530    37.8710    12.7730 c5         1 P8X      -0.012000
      3 C3          -1.3520    37.8440    13.9860 c5         1 P8X      -0.073500
      4 C4          -1.7370    36.3920    14.0780 c2         1 P8X       0.256800
      5 C5          -2.7490    35.8510    14.8630 ce         1 P8X      -0.491600
      6 C6          -2.8910    34.4660    15.0700 ce         1 P8X       0.586600
      7 C7          -3.9590    33.8330    15.9470 c5         1 P8X      -0.115300
      8 C8          -3.2820    32.4660    16.2640 c5         1 P8X      -0.072500
      9 C9          -2.3030    32.3450    15.1070 cf         1 P8X       0.204400
     10 C10         -1.6330    31.2140    14.7670 ce         1 P8X      -0.397600
     11 C11         -0.5540    31.1420    13.8030 ce         1 P8X       0.465600
     12 C12          0.7550    30.4390    14.1140 c5         1 P8X      -0.115100
     13 C13          1.5440    30.7670    12.8690 c2         1 P8X      -0.149400
     14 C14          0.7470    31.5240    12.0930 cf         1 P8X       0.101400
     15 C15          1.0540    32.1510    10.7640 c3         1 P8X      -0.022800
     16 C16          1.1290    33.6610    10.8570 c2         1 P8X       0.406300
     17 C17          2.2030    34.4860    10.1750 c5         1 P8X      -0.117300
     18 C18          1.8410    35.9230    10.6750 c5         1 P8X      -0.063700
     19 C19          0.4490    35.7460    11.3310 c5         1 P8X       0.096500
     20 C20          1.3830    36.1530    13.6560 c3         1 P8X      -0.110100
     21 N21         -0.9440    35.6770    13.3080 nu         1 P8X      -0.743200
     22 N22         -2.0880    33.5710    14.5340 nf         1 P8X      -0.692300
     23 N23         -0.5330    31.7200    12.6520 nf         1 P8X      -0.524300
     24 N24          0.2260    34.3170    11.4500 n2         1 P8X      -0.566900
     25 C25          0.7980    38.8640    12.8960 c3         1 P8X      -0.074100
     26 C26         -1.1750    38.2070    11.5050 c3         1 P8X      -0.202400
     27 C27         -1.7750    39.6320    11.4790 c          1 P8X       0.714000
     28 O28         -2.8420    39.8250    12.1030 o          1 P8X      -0.768000
     29 O29         -1.1470    40.4870    10.8220 o          1 P8X      -0.768000
     30 C30         -0.8740    38.3740    15.3500 c3         1 P8X      -0.037400
     31 C31         -0.9530    39.8870    15.4900 c3         1 P8X      -0.198400
     32 C32         -0.6010    40.4480    16.8850 c          1 P8X       0.711000
     33 O33         -0.4910    39.6410    17.8300 o          1 P8X      -0.784500
     34 O34         -0.4740    41.6890    16.9500 o          1 P8X      -0.784500
     35 C36         -4.3280    34.6710    17.1630 c3         1 P8X      -0.058100
     36 C37         -5.2100    33.5350    15.0800 c3         1 P8X      -0.180400
     37 C38         -5.8450    34.7370    14.3540 c          1 P8X       0.718000
     38 O39         -6.5160    35.5310    15.0490 o          1 P8X      -0.753000
     39 O40         -5.6500    34.8160    13.1240 o          1 P8X      -0.753000
     40 C41         -2.5810    32.4060    17.6310 c3         1 P8X      -0.043400
     41 C42         -2.1080    31.0180    18.0380 c3         1 P8X      -0.198400
     42 C43         -1.6240    30.8750    19.4960 c          1 P8X       0.714000
     43 O44         -1.4780    29.7030    19.9030 o          1 P8X      -0.777000
     44 O45         -1.3940    31.9180    20.1400 o          1 P8X      -0.777000
     45 C46          1.3910    31.0860    15.3500 c3         1 P8X      -0.052100
     46 C47          0.5650    28.9380    14.3410 c3         1 P8X      -0.052100
     47 C48          2.9550    30.3350    12.6380 c3         1 P8X      -0.005200
     48 C49          3.1190    28.9510    11.9880 c3         1 P8X      -0.184400
     49 C50          2.6060    28.9240    10.5400 c          1 P8X       0.711000
     50 O51          1.5850    28.2470    10.3010 o          1 P8X      -0.761000
     51 O52          3.2570    29.6020     9.7150 o          1 P8X      -0.761000
     52 C54          2.0520    34.3070     8.6580 c3         1 P8X      -0.071100
     53 C55          3.6180    34.0310    10.5660 c3         1 P8X      -0.043400
     54 C56          3.9300    34.0120    12.0550 c3         1 P8X      -0.198400
     55 C57          5.2840    33.3750    12.4320 c          1 P8X       0.718000
     56 O58          5.7700    33.7260    13.5270 o          1 P8X      -0.779500
     57 O59          5.7720    32.5410    11.6410 o          1 P8X      -0.779500
     58 C60          1.8920    37.0260     9.6230 c3         1 P8X      -0.190400
     59 C61          3.3080    37.3900     9.1320 c          1 P8X       0.719000
     60 O62          3.4510    37.6010     7.9100 o          1 P8X      -0.773500
     61 O63          4.1940    37.4840    10.0080 o          1 P8X      -0.773500
     62 C64          0.0080    31.7350     9.7190 c3         1 P8X      -0.071100
     63 H5          -3.4120    36.5350    15.3750 ha         1 P8X       0.192000
     64 H8          -4.0250    31.6630    16.2360 hc         1 P8X       0.022700
     65 H20          1.6310    35.0900    13.6790 hc         1 P8X       0.043700
     66 H30         -1.5020    37.9280    16.1230 hc         1 P8X       0.038200
     67 H60          1.2340    36.7950     8.7830 hc         1 P8X       0.025200
     68 H20A         2.2760    36.6910    13.3450 hc         1 P8X       0.043700
     69 H30A         0.1400    38.0250    15.5600 hc         1 P8X       0.038200
     70 H60A         1.4820    37.9380    10.0720 hc         1 P8X       0.025200
     71 H20B         1.1540    36.4570    14.6770 hc         1 P8X       0.043700
     72 H10         -1.8060    30.3300    15.3700 ha         1 P8X       0.146000
     73 H31         -0.3190    40.3870    14.7550 hc         1 P8X       0.033200
     74 H41         -1.7440    33.1110    17.6520 hc         1 P8X       0.041200
     75 H31A        -1.9720    40.2130    15.2480 hc         1 P8X       0.033200
     76 H41A        -3.2880    32.7550    18.3860 hc         1 P8X       0.041200
     77 H15          2.0190    31.7710    10.4260 hc         1 P8X       0.099700
     78 H18          2.5680    36.1980    11.4370 hc         1 P8X       0.089700
     79 H19         -0.3290    36.1090    10.6520 h1         1 P8X       0.066700
     80 HN21        -1.0090    34.6620    13.3160 hn         1 P8X       0.570000
     81 H42         -2.9080    30.2890    17.8630 hc         1 P8X       0.019200
     82 H42A        -1.2820    30.6930    17.3970 hc         1 P8X       0.019200
     83 H3          -2.2410    38.4180    13.7140 hc         1 P8X       0.120700
     84 H54          2.7600    34.9370     8.1180 hc         1 P8X       0.020033
     85 H64          0.2290    32.1620     8.7410 hc         1 P8X       0.024367
     86 H54A         2.2550    33.2730     8.3740 hc         1 P8X       0.020033
     87 H64A        -0.0020    30.6490     9.6130 hc         1 P8X       0.024367
     88 H54B         1.0500    34.5570     8.3050 hc         1 P8X       0.020033
     89 H64B        -0.9880    32.0600    10.0140 hc         1 P8X       0.024367
     90 H25          0.4550    39.8920    12.8100 hc         1 P8X       0.033033
     91 H55          3.7860    33.0300    10.1610 hc         1 P8X       0.046200
     92 H25A         1.3400    38.7760    13.8370 hc         1 P8X       0.033033
     93 H55A         4.3300    34.6830    10.0520 hc         1 P8X       0.046200
     94 H25B         1.5200    38.7030    12.0930 hc         1 P8X       0.033033
     95 H26         -0.5340    38.1120    10.6280 hc         1 P8X       0.034700
     96 H36         -5.0030    34.1210    17.8220 hc         1 P8X       0.025367
     97 H46          2.3790    30.6630    15.5420 hc         1 P8X       0.024200
     98 H56          3.8920    35.0200    12.4710 hc         1 P8X       0.035200
     99 H26A        -1.9780    37.4690    11.3980 hc         1 P8X       0.034700
    100 H36A        -3.4520    34.9600    17.7440 hc         1 P8X       0.025367
    101 H46A         1.5040    32.1640    15.2200 hc         1 P8X       0.024200
    102 H56A         3.1530    33.4500    12.5910 hc         1 P8X       0.035200
    103 H36B        -4.8470    35.5770    16.8600 hc         1 P8X       0.025367
    104 H46B         0.7770    30.9150    16.2360 hc         1 P8X       0.024200
    105 H37         -4.9390    32.7750    14.3410 hc         1 P8X       0.004700
    106 H47          1.5190    28.4640    14.5760 hc         1 P8X       0.024200
    107 H37A        -5.9510    33.0760    15.7450 hc         1 P8X       0.004700
    108 H47A        -0.1090    28.7520    15.1800 hc         1 P8X       0.024200
    109 H47B         0.1550    28.4480    13.4570 hc         1 P8X       0.024200
    110 H48          3.4770    31.0680    12.0190 hc         1 P8X       0.056700
    111 H48A         3.4870    30.3310    13.5950 hc         1 P8X       0.056700
    112 H49          4.1860    28.7080    11.9950 hc         1 P8X      -0.007300
    113 H49A         2.6170    28.1940    12.5930 hc         1 P8X      -0.007300
@<TRIPOS>BOND
     1     1     2 1   
     2     1    19 1   
     3     1    20 1   
     4     1    21 1   
     5     2     3 1   
     6     2    25 1   
     7     2    26 1   
     8     3     4 1   
     9     3    30 1   
    10     3    83 1   
    11     4     5 2   
    12     4    21 1   
    13     5     6 1   
    14     5    63 1   
    15     6     7 1   
    16     6    22 2   
    17     7     8 1   
    18     7    35 1   
    19     7    36 1   
    20     8     9 1   
    21     8    40 1   
    22     8    64 1   
    23     9    10 2   
    24     9    22 1   
    25    10    11 1   
    26    10    72 1   
    27    11    12 1   
    28    11    23 2   
    29    12    13 1   
    30    12    45 1   
    31    12    46 1   
    32    13    14 2   
    33    13    47 1   
    34    14    15 1   
    35    14    23 1   
    36    15    16 1   
    37    15    62 1   
    38    15    77 1   
    39    16    17 1   
    40    16    24 2   
    41    17    18 1   
    42    17    52 1   
    43    17    53 1   
    44    18    19 1   
    45    18    58 1   
    46    18    78 1   
    47    19    24 1   
    48    19    79 1   
    49    20    65 1   
    50    20    68 1   
    51    20    71 1   
    52    21    80 1   
    53    25    90 1   
    54    25    92 1   
    55    25    94 1   
    56    26    27 1   
    57    26    95 1   
    58    26    99 1   
    59    27    28 1   
    60    27    29 1   
    61    30    31 1   
    62    30    66 1   
    63    30    69 1   
    64    31    32 1   
    65    31    73 1   
    66    31    75 1   
    67    32    33 1   
    68    32    34 1   
    69    35    96 1   
    70    35   100 1   
    71    35   103 1   
    72    36    37 1   
    73    36   105 1   
    74    36   107 1   
    75    37    38 1   
    76    37    39 1   
    77    40    41 1   
    78    40    74 1   
    79    40    76 1   
    80    41    42 1   
    81    41    81 1   
    82    41    82 1   
    83    42    43 1   
    84    42    44 1   
    85    45    97 1   
    86    45   101 1   
    87    45   104 1   
    88    46   106 1   
    89    46   108 1   
    90    46   109 1   
    91    47    48 1   
    92    47   110 1   
    93    47   111 1   
    94    48    49 1   
    95    48   112 1   
    96    48   113 1   
    97    49    50 1   
    98    49    51 1   
    99    52    84 1   
   100    52    86 1   
   101    52    88 1   
   102    53    54 1   
   103    53    91 1   
   104    53    93 1   
   105    54    55 1   
   106    54    98 1   
   107    54   102 1   
   108    55    56 1   
   109    55    57 1   
   110    58    59 1   
   111    58    67 1   
   112    58    70 1   
   113    59    60 1   
   114    59    61 1   
   115    62    85 1   
   116    62    87 1   
   117    62    89 1   
@<TRIPOS>SUBSTRUCTURE
     1 P8X         1 TEMP              0 ****  ****    0 ROOT
