@<TRIPOS>MOLECULE
P8Y
   44    44     1     0     0
SMALL
abcg2


@<TRIPOS>ATOM
      1 C1         -47.4760    38.0460    -6.0520 c3         1 P8Y      -0.045400
      2 C11        -47.3890    36.5150    -8.7460 c3         1 P8Y      -0.088100
      3 C16        -44.1240    39.3800    -6.2740 c3         1 P8Y      -0.288400
      4 C18        -46.1860    37.6170    -5.3670 c3         1 P8Y      -0.294400
      5 C2         -47.3460    38.6770    -7.4350 c3         1 P8Y      -0.081400
      6 C3         -43.5680    40.7970    -6.1610 c6         1 P8Y       0.167500
      7 C4         -42.7400    41.1710    -7.4100 c6         1 P8Y       0.151300
      8 C5         -41.4030    40.4440    -7.4230 c6         1 P8Y       0.181300
      9 C6         -40.6680    40.7080    -6.1140 c6         1 P8Y       0.092300
     10 C7         -41.5370    40.3210    -4.9200 c6         1 P8Y       0.126800
     11 C8         -46.6480    37.8240    -8.4960 c3         1 P8Y      -0.062700
     12 C9         -46.4910    38.6230    -9.7850 c3         1 P8Y      -0.088100
     13 N2         -42.8310    40.9740    -4.9270 n7         1 P8Y      -0.860400
     14 O10        -39.4630    39.9710    -6.1580 oh         1 P8Y      -0.720000
     15 O12        -43.4180    40.8870    -8.6090 oh         1 P8Y      -0.693000
     16 O13        -45.9430    40.1050    -4.4680 o          1 P8Y      -0.515000
     17 O14        -44.2220    38.3940    -3.8040 o          1 P8Y      -0.515000
     18 O8         -40.6670    40.9020    -8.5320 oh         1 P8Y      -0.647000
     19 S17        -45.1060    38.9550    -4.8270 s6         1 P8Y       1.073000
     20 H1         -48.0150    38.7290    -5.3930 hc         1 P8Y       0.058200
     21 H2         -48.1000    37.1510    -6.1140 hc         1 P8Y       0.058200
     22 H3         -47.4110    35.8830    -7.8570 hc         1 P8Y       0.034867
     23 H4         -48.4230    36.7010    -9.0490 hc         1 P8Y       0.034867
     24 H5         -46.9090    35.9400    -9.5400 hc         1 P8Y       0.034867
     25 H6         -44.7660    39.3050    -7.1490 h1         1 P8Y       0.104200
     26 H7         -43.3640    38.6030    -6.3590 h1         1 P8Y       0.104200
     27 H8         -46.4160    37.0920    -4.4370 h1         1 P8Y       0.097200
     28 H9         -45.5770    36.9410    -5.9720 h1         1 P8Y       0.097200
     29 H10        -46.8460    39.6480    -7.3510 hc         1 P8Y       0.044200
     30 H11        -48.3550    38.9100    -7.7910 hc         1 P8Y       0.044200
     31 H12        -44.4230    41.4770    -6.1240 h1         1 P8Y       0.077700
     32 H13        -42.5310    42.2490    -7.3310 h1         1 P8Y       0.037700
     33 H14        -41.5810    39.3590    -7.5050 h1         1 P8Y       0.056700
     34 H15        -40.4600    41.7880    -6.0570 h1         1 P8Y       0.036700
     35 H16        -41.6750    39.2360    -4.9010 h1         1 P8Y       0.071700
     36 H17        -41.0270    40.5820    -3.9900 h1         1 P8Y       0.071700
     37 H18        -45.6400    37.5660    -8.1470 hc         1 P8Y       0.036700
     38 H19        -45.9100    39.5330    -9.6170 hc         1 P8Y       0.034867
     39 H20        -45.9790    38.0430   -10.5540 hc         1 P8Y       0.034867
     40 H21        -47.4640    38.9220   -10.1820 hc         1 P8Y       0.034867
     41 H22        -42.7260    41.9620    -4.7350 hn         1 P8Y       0.429000
     42 H24        -38.8500    40.3500    -5.5210 ho         1 P8Y       0.512000
     43 H25        -44.1440    41.5110    -8.7020 ho         1 P8Y       0.503000
     44 H26        -39.7830    40.5250    -8.4680 ho         1 P8Y       0.458000
@<TRIPOS>BOND
     1     1     4 1   
     2     1     5 1   
     3     1    20 1   
     4     1    21 1   
     5     2    11 1   
     6     2    22 1   
     7     2    23 1   
     8     2    24 1   
     9     3     6 1   
    10     3    19 1   
    11     3    25 1   
    12     3    26 1   
    13     4    19 1   
    14     4    27 1   
    15     4    28 1   
    16     5    11 1   
    17     5    29 1   
    18     5    30 1   
    19     6     7 1   
    20     6    13 1   
    21     6    31 1   
    22     7     8 1   
    23     7    15 1   
    24     7    32 1   
    25     8     9 1   
    26     8    18 1   
    27     8    33 1   
    28     9    10 1   
    29     9    14 1   
    30     9    34 1   
    31    10    13 1   
    32    10    35 1   
    33    10    36 1   
    34    11    12 1   
    35    11    37 1   
    36    12    38 1   
    37    12    39 1   
    38    12    40 1   
    39    13    41 1   
    40    14    42 1   
    41    15    43 1   
    42    16    19 2   
    43    17    19 2   
    44    18    44 1   
@<TRIPOS>SUBSTRUCTURE
     1 P8Y         1 TEMP              0 ****  ****    0 ROOT
