@<TRIPOS>MOLECULE
P8Y
   44    44     1     0     0
SMALL
No Charge or Current Charge


@<TRIPOS>ATOM
      1 C1         -47.6230    37.9420    -6.1000 c3         1 P8Y      -0.045400
      2 C11        -46.9940    36.3470    -8.7680 c3         1 P8Y      -0.088100
      3 C16        -44.3140    39.6090    -5.9730 c3         1 P8Y      -0.288400
      4 C18        -46.3390    37.6940    -5.2540 c3         1 P8Y      -0.294400
      5 C2         -47.4210    38.5630    -7.5060 c3         1 P8Y      -0.081400
      6 C3         -43.5690    40.9650    -5.8170 c6         1 P8Y       0.167500
      7 C4         -42.9180    41.4830    -7.1510 c6         1 P8Y       0.151300
      8 C5         -41.7120    40.5850    -7.5560 c6         1 P8Y       0.181300
      9 C6         -40.6660    40.5560    -6.4040 c6         1 P8Y       0.092300
     10 C7         -41.3440    40.0510    -5.0940 c6         1 P8Y       0.126800
     11 C8         -46.4880    37.7790    -8.4750 c3         1 P8Y      -0.062700
     12 C9         -46.2760    38.5650    -9.7880 c3         1 P8Y      -0.088100
     13 N2         -42.5530    40.8540    -4.7340 n7         1 P8Y      -0.860400
     14 O10        -39.5440    39.7270    -6.7720 oh         1 P8Y      -0.720000
     15 O12        -43.8680    41.5600    -8.2300 oh         1 P8Y      -0.693000
     16 O13        -46.4430    40.2580    -4.5150 o          1 P8Y      -0.515000
     17 O14        -44.6840    38.7540    -3.4810 o          1 P8Y      -0.515000
     18 O8         -41.0930    41.0700    -8.7600 oh         1 P8Y      -0.647000
     19 S17        -45.4640    39.1710    -4.6540 s6         1 P8Y       1.073000
     20 H1         -48.3110    38.5800    -5.5310 hc         1 P8Y       0.058200
     21 H2         -48.1470    36.9850    -6.2130 hc         1 P8Y       0.058200
     22 H3         -47.0130    35.7390    -7.8560 hc         1 P8Y       0.034867
     23 H4         -48.0050    36.3680    -9.1920 hc         1 P8Y       0.034867
     24 H5         -46.3340    35.8430    -9.4850 hc         1 P8Y       0.034867
     25 H6         -44.9260    39.6570    -6.8750 h1         1 P8Y       0.104200
     26 H7         -43.6170    38.7740    -6.0740 h1         1 P8Y       0.104200
     27 H8         -46.6200    37.1540    -4.3440 h1         1 P8Y       0.097200
     28 H9         -45.6080    37.0860    -5.7970 h1         1 P8Y       0.097200
     29 H10        -47.0550    39.5900    -7.3930 hc         1 P8Y       0.044200
     30 H11        -48.4080    38.6570    -7.9770 hc         1 P8Y       0.044200
     31 H12        -44.3190    41.7140    -5.5160 h1         1 P8Y       0.077700
     32 H13        -42.5250    42.4920    -6.9530 h1         1 P8Y       0.037700
     33 H14        -42.0760    39.5590    -7.7150 h1         1 P8Y       0.056700
     34 H15        -40.3200    41.5860    -6.2310 h1         1 P8Y       0.036700
     35 H16        -41.6210    38.9930    -5.2140 h1         1 P8Y       0.071700
     36 H17        -40.6210    40.0970    -4.2660 h1         1 P8Y       0.071700
     37 H18        -45.5020    37.6840    -8.0050 hc         1 P8Y       0.036700
     38 H19        -45.8620    39.5600    -9.5820 hc         1 P8Y       0.034867
     39 H20        -45.5740    38.0390   -10.4470 hc         1 P8Y       0.034867
     40 H21        -47.2230    38.6920   -10.3260 hc         1 P8Y       0.034867
     41 H22        -42.2450    41.8030    -4.4780 hn         1 P8Y       0.429000
     42 H24        -38.8550    39.8340    -6.0730 ho         1 P8Y       0.512000
     43 H25        -43.3150    41.6110    -9.0450 ho         1 P8Y       0.503000
     44 H26        -40.1870    40.6850    -8.7350 ho         1 P8Y       0.458000
@<TRIPOS>BOND
     1     1     4 1   
     2     1     5 1   
     3     1    20 1   
     4     1    21 1   
     5     2    11 1   
     6     2    22 1   
     7     2    23 1   
     8     2    24 1   
     9     3     6 1   
    10     3    19 1   
    11     3    25 1   
    12     3    26 1   
    13     4    19 1   
    14     4    27 1   
    15     4    28 1   
    16     5    11 1   
    17     5    29 1   
    18     5    30 1   
    19     6     7 1   
    20     6    13 1   
    21     6    31 1   
    22     7     8 1   
    23     7    15 1   
    24     7    32 1   
    25     8     9 1   
    26     8    18 1   
    27     8    33 1   
    28     9    10 1   
    29     9    14 1   
    30     9    34 1   
    31    10    13 1   
    32    10    35 1   
    33    10    36 1   
    34    11    12 1   
    35    11    37 1   
    36    12    38 1   
    37    12    39 1   
    38    12    40 1   
    39    13    41 1   
    40    14    42 1   
    41    15    43 1   
    42    16    19 2   
    43    17    19 2   
    44    18    44 1   
@<TRIPOS>SUBSTRUCTURE
     1 P8Y         1 TEMP              0 ****  ****    0 ROOT
