@<TRIPOS>MOLECULE
P8Z
   49    51     1     0     0
SMALL
No Charge or Current Charge


@<TRIPOS>ATOM
      1 N12          4.7030    15.1420    10.1060 nh         1 P8Z      -0.792400
      2 C13          5.2960    16.0150     9.0470 c6         1 P8Z       0.184300
      3 C20          5.4620    12.8400    10.3420 ca         1 P8Z      -0.148000
      4 C22          5.3190    11.4660    10.0950 ca         1 P8Z      -0.085000
      5 C24          4.2290    11.0020     9.3460 ca         1 P8Z      -0.121000
      6 C26          3.2830    11.9120     8.8490 ca         1 P8Z      -0.087000
      7 C28          3.4120    13.2960     9.0990 ca         1 P8Z      -0.132300
      8 C01          5.0840    19.4350    10.8580 c3         1 P8Z       0.153100
      9 N05          5.3590    17.9980    10.6490 n3         1 P8Z      -0.717600
     10 C06          4.7160    17.1300    11.6850 c6         1 P8Z       0.161300
     11 C09          5.0390    15.6130    11.4860 c6         1 P8Z       0.184300
     12 C16          4.9760    17.5280     9.2820 c6         1 P8Z       0.161300
     13 C19          4.5200    13.7650     9.8490 ca         1 P8Z       0.272000
     14 N32          0.9960    13.8520     8.9850 nu         1 P8Z      -0.810200
     15 C34          0.4880    13.8840    10.2790 cc         1 P8Z       0.125400
     16 C35          1.2280    14.5690    11.3270 cc         1 P8Z       0.320500
     17 N37          0.8740    14.6950    12.6060 nd         1 P8Z      -0.413300
     18 N38         -0.3500    14.0840    12.8910 n          1 P8Z      -0.133800
     19 C39         -0.7650    14.2160    14.3050 c3         1 P8Z       0.100300
     20 C43         -1.2110    13.3800    12.0040 c          1 P8Z       0.557200
     21 O44         -2.2750    12.8940    12.3730 o          1 P8Z      -0.569000
     22 C45         -0.7140    13.2880    10.6030 cd         1 P8Z      -0.301400
     23 C46         -1.6040    12.5340     9.6250 c3         1 P8Z      -0.026900
     24 H1           4.9170    15.7260     8.0560 h1         1 P8Z       0.044700
     25 H2           6.3880    15.8840     9.0290 h1         1 P8Z       0.044700
     26 H3           6.3180    13.1900    10.9110 ha         1 P8Z       0.117000
     27 H4           6.0560    10.7630    10.4790 ha         1 P8Z       0.116000
     28 H5           4.1160     9.9380     9.1500 ha         1 P8Z       0.118000
     29 H6           2.4410    11.5390     8.2700 ha         1 P8Z       0.110000
     30 H7           5.4230    19.7540    11.8520 h1         1 P8Z       0.032700
     31 H8           5.6110    20.0430    10.1100 h1         1 P8Z       0.032700
     32 H9           4.0090    19.6450    10.7770 h1         1 P8Z       0.032700
     33 H11          5.0470    17.4290    12.6900 h1         1 P8Z       0.039950
     34 H12          3.6240    17.2590    11.6570 h1         1 P8Z       0.039950
     35 H13          4.4750    15.0350    12.2320 h1         1 P8Z       0.044700
     36 H14          6.1080    15.4540    11.6860 h1         1 P8Z       0.044700
     37 H15          5.4990    18.1190     8.5160 h1         1 P8Z       0.039950
     38 H16          3.8980    17.6820     9.1210 h1         1 P8Z       0.039950
     39 H17          2.4030    14.2310     7.4500 h1         1 P8Z       0.066200
     40 H18          2.5430    15.2860     8.8520 h1         1 P8Z       0.066200
     41 H19          0.4040    13.3910     8.2930 hn         1 P8Z       0.485000
     42 H20          2.1670    15.0590    11.1180 h4         1 P8Z       0.059800
     43 H21         -0.0140    14.7700    14.8820 h1         1 P8Z       0.054033
     44 H22         -1.7200    14.7520    14.3590 h1         1 P8Z       0.054033
     45 H23         -0.8860    13.2190    14.7470 h1         1 P8Z       0.054033
     46 H24         -2.1180    11.6910    10.1030 hc         1 P8Z       0.040700
     47 H25         -2.3720    13.1960     9.2060 hc         1 P8Z       0.040700
     48 H26         -1.0370    12.1110     8.7890 hc         1 P8Z       0.040700
     49 C29          2.3490    14.2500     8.5470 c3         1 P8Z       0.263100
@<TRIPOS>BOND
     1     1     2 1   
     2     1    11 1   
     3     1    13 1   
     4     2    12 1   
     5     2    24 1   
     6     2    25 1   
     7     3     4 ar  
     8     3    13 ar  
     9     3    26 1   
    10     4     5 ar  
    11     4    27 1   
    12     5     6 ar  
    13     5    28 1   
    14     6     7 ar  
    15     6    29 1   
    16     7    13 ar  
    17     7    49 1   
    18     8     9 1   
    19     8    30 1   
    20     8    31 1   
    21     8    32 1   
    22     9    10 1   
    23     9    12 1   
    24    10    11 1   
    25    10    33 1   
    26    10    34 1   
    27    11    35 1   
    28    11    36 1   
    29    12    37 1   
    30    12    38 1   
    31    14    15 1   
    32    14    41 1   
    33    14    49 1   
    34    15    16 1   
    35    15    22 2   
    36    16    17 2   
    37    16    42 1   
    38    17    18 1   
    39    18    19 1   
    40    18    20 1   
    41    19    43 1   
    42    19    44 1   
    43    19    45 1   
    44    20    21 2   
    45    20    22 1   
    46    22    23 1   
    47    23    46 1   
    48    23    47 1   
    49    23    48 1   
    50    39    49 1   
    51    40    49 1   
@<TRIPOS>SUBSTRUCTURE
     1 P8Z         1 TEMP              0 ****  ****    0 ROOT
