@<TRIPOS>MOLECULE
P8Z
   49    51     1     0     0
SMALL
abcg2


@<TRIPOS>ATOM
      1 N12          4.5730    15.3320    10.1990 nh         1 P8Z      -0.792400
      2 C13          5.0700    16.0470     9.0290 c6         1 P8Z       0.184300
      3 C20          5.2960    13.0180    10.5710 ca         1 P8Z      -0.148000
      4 C22          5.1120    11.6550    10.3880 ca         1 P8Z      -0.085000
      5 C24          4.0400    11.1950     9.6390 ca         1 P8Z      -0.121000
      6 C26          3.1460    12.1090     9.1000 ca         1 P8Z      -0.087000
      7 C28          3.3050    13.4780     9.2880 ca         1 P8Z      -0.132300
      8 C01          5.4710    19.4120    10.6030 c3         1 P8Z       0.153100
      9 N05          5.5750    17.9820    10.4260 n3         1 P8Z      -0.717600
     10 C06          5.0780    17.2590    11.5780 c6         1 P8Z       0.161300
     11 C09          5.2720    15.7650    11.3950 c6         1 P8Z       0.184300
     12 C16          4.9030    17.5410     9.2220 c6         1 P8Z       0.161300
     13 C19          4.4080    13.9440    10.0200 ca         1 P8Z       0.272000
     14 N32          0.9020    14.0040     9.0150 nu         1 P8Z      -0.810200
     15 C34          0.4100    13.8660    10.2710 cc         1 P8Z       0.125400
     16 C35          1.0870    14.4770    11.3770 cc         1 P8Z       0.320500
     17 N37          0.6540    14.4040    12.5890 nd         1 P8Z      -0.413300
     18 N38         -0.4600    13.7420    12.8380 n          1 P8Z      -0.133800
     19 C39         -0.8830    13.7000    14.2270 c3         1 P8Z       0.100300
     20 C43         -1.2390    13.1050    11.8830 c          1 P8Z       0.557200
     21 O44         -2.2680    12.5290    12.2400 o          1 P8Z      -0.569000
     22 C45         -0.7500    13.1720    10.5380 cd         1 P8Z      -0.301400
     23 C46         -1.5180    12.4910     9.4500 c3         1 P8Z      -0.026900
     24 H1           4.5220    15.7370     8.1380 h1         1 P8Z       0.044700
     25 H2           6.1310    15.8140     8.8530 h1         1 P8Z       0.044700
     26 H3           6.1450    13.3590    11.1480 ha         1 P8Z       0.117000
     27 H4           5.8140    10.9570    10.8250 ha         1 P8Z       0.116000
     28 H5           3.8930    10.1340     9.4830 ha         1 P8Z       0.118000
     29 H6           2.2920    11.7460     8.5400 ha         1 P8Z       0.110000
     30 H7           6.0210    19.7200    11.4940 h1         1 P8Z       0.032700
     31 H8           5.9070    19.9280     9.7460 h1         1 P8Z       0.032700
     32 H9           4.4320    19.7620    10.7120 h1         1 P8Z       0.032700
     33 H11          5.6250    17.5820    12.4670 h1         1 P8Z       0.039950
     34 H12          4.0080    17.4630    11.7610 h1         1 P8Z       0.039950
     35 H13          4.8640    15.2390    12.2590 h1         1 P8Z       0.044700
     36 H14          6.3500    15.5510    11.3510 h1         1 P8Z       0.044700
     37 H15          5.3320    18.0600     8.3610 h1         1 P8Z       0.039950
     38 H16          3.8250    17.7840     9.2430 h1         1 P8Z       0.039950
     39 H17          2.3470    14.5120     7.6590 h1         1 P8Z       0.066200
     40 H18          2.4220    15.4300     9.1380 h1         1 P8Z       0.066200
     41 H19          0.4500    13.4720     8.2910 hn         1 P8Z       0.485000
     42 H20          2.0010    15.0420    11.2470 h4         1 P8Z       0.059800
     43 H21         -0.1420    14.2310    14.8150 h1         1 P8Z       0.054033
     44 H22         -1.8530    14.1780    14.3550 h1         1 P8Z       0.054033
     45 H23         -0.9530    12.6730    14.5810 h1         1 P8Z       0.054033
     46 H24         -2.3390    11.9080     9.8570 hc         1 P8Z       0.040700
     47 H25         -1.9430    13.2080     8.7420 hc         1 P8Z       0.040700
     48 H26         -0.8830    11.8110     8.8760 hc         1 P8Z       0.040700
     49 C29          2.2590    14.4260     8.7420 c3         1 P8Z       0.263100
@<TRIPOS>BOND
     1     1     2 1   
     2     1    11 1   
     3     1    13 1   
     4     2    12 1   
     5     2    24 1   
     6     2    25 1   
     7     3     4 ar  
     8     3    13 ar  
     9     3    26 1   
    10     4     5 ar  
    11     4    27 1   
    12     5     6 ar  
    13     5    28 1   
    14     6     7 ar  
    15     6    29 1   
    16     7    13 ar  
    17     7    49 1   
    18     8     9 1   
    19     8    30 1   
    20     8    31 1   
    21     8    32 1   
    22     9    10 1   
    23     9    12 1   
    24    10    11 1   
    25    10    33 1   
    26    10    34 1   
    27    11    35 1   
    28    11    36 1   
    29    12    37 1   
    30    12    38 1   
    31    14    15 1   
    32    14    41 1   
    33    14    49 1   
    34    15    16 1   
    35    15    22 2   
    36    16    17 2   
    37    16    42 1   
    38    17    18 1   
    39    18    19 1   
    40    18    20 1   
    41    19    43 1   
    42    19    44 1   
    43    19    45 1   
    44    20    21 2   
    45    20    22 1   
    46    22    23 1   
    47    23    46 1   
    48    23    47 1   
    49    23    48 1   
    50    39    49 1   
    51    40    49 1   
@<TRIPOS>SUBSTRUCTURE
     1 P8Z         1 TEMP              0 ****  ****    0 ROOT
