@<TRIPOS>MOLECULE
P90
   65    70     1     0     0
SMALL
No Charge or Current Charge


@<TRIPOS>ATOM
      1 C1          -0.5710     1.0560     1.1080 c3         1 P90       0.108700
      2 C32         -0.6440     1.9500    -0.1810 c3         1 P90      -0.007100
      3 C33         -0.3080     1.2490    -1.4980 ca         1 P90      -0.171300
      4 C4A         -1.2370     0.3960    -2.1210 ca         1 P90      -0.122000
      5 C4B          0.9380     1.4690    -2.1170 ca         1 P90      -0.122000
      6 C5A         -0.9150    -0.2530    -3.3250 ca         1 P90      -0.073500
      7 C5B          1.2620     0.8200    -3.3200 ca         1 P90      -0.073500
      8 C36          0.3430    -0.0570    -3.9340 ca         1 P90      -0.026300
      9 C37          0.7010    -0.7740    -5.2440 c3         1 P90      -0.046700
     10 F38          0.0890    -1.9860    -5.3170 f          1 P90      -0.156500
     11 F39          2.0320    -1.0420    -5.3020 f          1 P90      -0.156500
     12 P40          0.2250     0.2280    -6.7830 p5         1 P90       1.261500
     13 O41          0.9450     1.5380    -6.7770 o          1 P90      -0.899500
     14 O42          0.6010    -0.5310    -8.0150 o          1 P90      -0.899500
     15 O43         -1.2500     0.4730    -6.7910 o          1 P90      -0.899500
     16 N61         -1.5580    -0.0840     1.0760 na         1 P90       0.084600
     17 N62         -1.2340    -1.3920     1.4320 nc         1 P90      -0.156400
     18 N63         -2.3400    -2.1270     1.4560 nd         1 P90      -0.216400
     19 C7A         -3.3920    -1.2720     1.1900 ca         1 P90       0.013400
     20 C7B         -2.9360    -0.0060     0.9760 ca         1 P90      -0.064200
     21 C8A         -4.7580    -1.5850     1.1500 ca         1 P90      -0.028000
     22 C8B         -3.8280     1.0600     0.7330 ca         1 P90      -0.100000
     23 C9A         -5.6730    -0.5440     0.8920 ca         1 P90      -0.146000
     24 C9B         -5.2080     0.7740     0.6890 ca         1 P90      -0.092000
     25 C51          0.8920     0.5590     1.2040 cc         1 P90       0.392200
     26 S52          1.4740    -0.8130     0.2020 ss         1 P90       0.206800
     27 N53          1.8260     1.2110     1.9300 nd         1 P90      -0.572100
     28 C54          3.0470     0.5800     1.7420 ca         1 P90       0.102400
     29 C55          3.0590    -0.4940     0.8800 ca         1 P90      -0.225000
     30 C56          4.2310    -1.2130     0.6010 ca         1 P90      -0.062000
     31 C57          5.4280    -0.8180     1.2280 ca         1 P90      -0.116000
     32 C58          5.4310     0.2810     2.1130 ca         1 P90      -0.124000
     33 C59          4.2360     0.9850     2.3710 ca         1 P90      -0.060000
     34 C12         -0.9350     1.9530     2.3480 c3         1 P90      -0.058200
     35 C13         -1.0450     1.1880     3.6600 c2         1 P90      -0.190200
     36 C14         -0.0950     1.1250     4.6190 ce         1 P90      -0.174200
     37 C15         -0.1980     0.3690     5.9010 ca         1 P90      -0.034800
     38 C1A         -1.1450    -0.6620     6.0850 ca         1 P90      -0.100500
     39 C1B          0.6870     0.6790     6.9520 ca         1 P90      -0.100500
     40 C2A         -1.2100    -1.3590     7.3050 ca         1 P90      -0.115500
     41 C2B          0.6210    -0.0170     8.1720 ca         1 P90      -0.115500
     42 C16         -0.3290    -1.0360     8.3490 ca         1 P90      -0.121000
     43 H321         0.0460     2.7930    -0.0430 hc         1 P90       0.051200
     44 H322        -1.6220     2.4230    -0.2780 hc         1 P90       0.051200
     45 H4A         -2.2160     0.2320    -1.6800 ha         1 P90       0.078000
     46 H4B          1.6670     2.1350    -1.6600 ha         1 P90       0.078000
     47 H5A         -1.6500    -0.9070    -3.7870 ha         1 P90       0.135500
     48 H5B          2.2320     1.0020    -3.7760 ha         1 P90       0.135500
     49 H8A         -5.1010    -2.6020     1.3210 ha         1 P90       0.127000
     50 H8B         -3.4990     2.0820     0.5900 ha         1 P90       0.121000
     51 H9A         -6.7390    -0.7560     0.8570 ha         1 P90       0.106000
     52 H9B         -5.9200     1.5760     0.5010 ha         1 P90       0.104000
     53 H56          4.2190    -2.0580    -0.0860 ha         1 P90       0.119000
     54 H57          6.3500    -1.3590     1.0290 ha         1 P90       0.101000
     55 H58          6.3550     0.5870     2.5970 ha         1 P90       0.101000
     56 H59          4.2340     1.8320     3.0510 ha         1 P90       0.120000
     57 H121        -0.2110     2.7720     2.4470 hc         1 P90       0.066700
     58 H122        -1.8890     2.4580     2.1670 hc         1 P90       0.066700
     59 H13         -1.9990     0.6750     3.7850 ha         1 P90       0.173000
     60 H14          0.8430     1.6670     4.4860 ha         1 P90       0.180000
     61 H1A         -1.8270    -0.9400     5.2870 ha         1 P90       0.115500
     62 H1B          1.4270     1.4660     6.8270 ha         1 P90       0.115500
     63 H2A         -1.9420    -2.1520     7.4380 ha         1 P90       0.105000
     64 H2B          1.3070     0.2330     8.9780 ha         1 P90       0.105000
     65 H16         -0.3800    -1.5760     9.2920 ha         1 P90       0.102000
@<TRIPOS>BOND
     1     1     2 1   
     2     1    16 1   
     3     1    25 1   
     4     1    34 1   
     5     2     3 1   
     6     2    43 1   
     7     2    44 1   
     8     3     4 ar  
     9     3     5 ar  
    10     4     6 ar  
    11     4    45 1   
    12     5     7 ar  
    13     5    46 1   
    14     6     8 ar  
    15     6    47 1   
    16     7     8 ar  
    17     7    48 1   
    18     8     9 1   
    19     9    10 1   
    20     9    11 1   
    21     9    12 1   
    22    12    13 1   
    23    12    14 1   
    24    12    15 1   
    25    16    17 1   
    26    16    20 1   
    27    17    18 2   
    28    18    19 1   
    29    19    20 ar  
    30    19    21 ar  
    31    20    22 ar  
    32    21    23 ar  
    33    21    49 1   
    34    22    24 ar  
    35    22    50 1   
    36    23    24 ar  
    37    23    51 1   
    38    24    52 1   
    39    25    26 1   
    40    25    27 2   
    41    26    29 1   
    42    27    28 1   
    43    28    29 ar  
    44    28    33 ar  
    45    29    30 ar  
    46    30    31 ar  
    47    30    53 1   
    48    31    32 ar  
    49    31    54 1   
    50    32    33 ar  
    51    32    55 1   
    52    33    56 1   
    53    34    35 1   
    54    34    57 1   
    55    34    58 1   
    56    35    36 2   
    57    35    59 1   
    58    36    37 1   
    59    36    60 1   
    60    37    38 ar  
    61    37    39 ar  
    62    38    40 ar  
    63    38    61 1   
    64    39    41 ar  
    65    39    62 1   
    66    40    42 ar  
    67    40    63 1   
    68    41    42 ar  
    69    41    64 1   
    70    42    65 1   
@<TRIPOS>SUBSTRUCTURE
     1 P90         1 TEMP              0 ****  ****    0 ROOT
