@<TRIPOS>MOLECULE
P90
   65    70     1     0     0
SMALL
bcc


@<TRIPOS>ATOM
      1 C1          -0.6010     1.1410     1.1060 c3         1 P90       0.079400
      2 C32         -0.6480     2.0570    -0.1430 c3         1 P90      -0.007100
      3 C33         -0.3810     1.3070    -1.4170 ca         1 P90      -0.171300
      4 C4A         -1.4220     0.7370    -2.1450 ca         1 P90      -0.140000
      5 C4B          0.9190     1.1290    -1.8850 ca         1 P90      -0.140000
      6 C5A         -1.1730    -0.0090    -3.2860 ca         1 P90      -0.091500
      7 C5B          1.1720     0.3850    -3.0260 ca         1 P90      -0.091500
      8 C36          0.1300    -0.2150    -3.7280 ca         1 P90      -0.026300
      9 C37          0.3970    -1.0010    -4.9700 c3         1 P90       0.353700
     10 F38         -0.5190    -2.0350    -5.0420 f          1 P90      -0.277800
     11 F39          1.6180    -1.6350    -4.8370 f          1 P90      -0.277800
     12 P40          0.3560     0.0140    -6.5590 p5         1 P90       1.103700
     13 O41          1.4370     1.0610    -6.3150 o          1 P90      -0.899500
     14 O42          0.6820    -1.0060    -7.6490 o          1 P90      -0.899500
     15 O43         -1.0750     0.5400    -6.5780 o          1 P90      -0.899500
     16 N61         -1.6000     0.0860     0.9490 na         1 P90       0.113900
     17 N62         -1.2510    -1.1820     0.7870 nc         1 P90      -0.156400
     18 N63         -2.2760    -1.9180     0.6260 nd         1 P90      -0.216400
     19 C7A         -3.3780    -1.1170     0.6700 ca         1 P90       0.013400
     20 C7B         -2.9570     0.2000     0.8760 ca         1 P90      -0.064200
     21 C8A         -4.7330    -1.4370     0.5390 ca         1 P90      -0.046000
     22 C8B         -3.8720     1.2570     0.9420 ca         1 P90      -0.118000
     23 C9A         -5.6330    -0.4010     0.6140 ca         1 P90      -0.164000
     24 C9B         -5.2020     0.9270     0.8090 ca         1 P90      -0.110000
     25 C51          0.8200     0.6080     1.2530 cc         1 P90       0.392200
     26 S52          1.3770    -1.0420     1.1450 ss         1 P90       0.079900
     27 N53          1.7430     1.4790     1.4680 nd         1 P90      -0.572100
     28 C54          2.9840     0.9070     1.5680 ca         1 P90       0.102400
     29 C55          2.9900    -0.4850     1.4200 ca         1 P90      -0.098100
     30 C56          4.1710    -1.2190     1.4940 ca         1 P90      -0.080000
     31 C57          5.3470    -0.5290     1.7200 ca         1 P90      -0.134000
     32 C58          5.3520     0.8650     1.8700 ca         1 P90      -0.142000
     33 C59          4.1800     1.5910     1.7960 ca         1 P90      -0.078000
     34 C12         -0.9170     1.9410     2.3920 c3         1 P90      -0.058200
     35 C13         -0.9970     1.0600     3.5960 c2         1 P90      -0.140200
     36 C14         -0.0680     1.0240     4.5520 ce         1 P90      -0.124200
     37 C15         -0.0780     0.1680     5.7420 ca         1 P90      -0.034800
     38 C1A         -0.9730    -0.8940     5.9090 ca         1 P90      -0.118500
     39 C1B          0.8450     0.4180     6.7590 ca         1 P90      -0.118500
     40 C2A         -0.9530    -1.6630     7.0610 ca         1 P90      -0.133500
     41 C2B          0.8660    -0.3510     7.9140 ca         1 P90      -0.133500
     42 C16         -0.0350    -1.3940     8.0710 ca         1 P90      -0.139000
     43 H321         0.0880     2.8470     0.0060 hc         1 P90       0.051200
     44 H322        -1.6270     2.5400    -0.1860 hc         1 P90       0.051200
     45 H4A         -2.4470     0.8870    -1.8280 ha         1 P90       0.096000
     46 H4B          1.7470     1.5860    -1.3570 ha         1 P90       0.096000
     47 H5A         -2.0070    -0.4340    -3.8270 ha         1 P90       0.153500
     48 H5B          2.1930     0.2720    -3.3610 ha         1 P90       0.153500
     49 H8A         -5.0510    -2.4590     0.3820 ha         1 P90       0.145000
     50 H8B         -3.5770     2.2870     1.0820 ha         1 P90       0.139000
     51 H9A         -6.6920    -0.6000     0.5170 ha         1 P90       0.124000
     52 H9B         -5.9420     1.7150     0.8540 ha         1 P90       0.122000
     53 H56          4.1730    -2.2950     1.3800 ha         1 P90       0.137000
     54 H57          6.2800    -1.0750     1.7820 ha         1 P90       0.119000
     55 H58          6.2880     1.3770     2.0470 ha         1 P90       0.119000
     56 H59          4.1760     2.6670     1.9100 ha         1 P90       0.138000
     57 H121        -0.1380     2.6920     2.5070 hc         1 P90       0.066700
     58 H122        -1.8530     2.4870     2.2600 hc         1 P90       0.066700
     59 H13         -1.8710     0.4190     3.6660 ha         1 P90       0.123000
     60 H14          0.7820     1.6960     4.4730 ha         1 P90       0.130000
     61 H1A         -1.6880    -1.1320     5.1320 ha         1 P90       0.133500
     62 H1B          1.5530     1.2300     6.6460 ha         1 P90       0.133500
     63 H2A         -1.6530    -2.4820     7.1680 ha         1 P90       0.123000
     64 H2B          1.5880    -0.1350     8.6910 ha         1 P90       0.123000
     65 H16         -0.0230    -1.9980     8.9690 ha         1 P90       0.120000
@<TRIPOS>BOND
     1     1     2 1   
     2     1    16 1   
     3     1    25 1   
     4     1    34 1   
     5     2     3 1   
     6     2    43 1   
     7     2    44 1   
     8     3     4 ar  
     9     3     5 ar  
    10     4     6 ar  
    11     4    45 1   
    12     5     7 ar  
    13     5    46 1   
    14     6     8 ar  
    15     6    47 1   
    16     7     8 ar  
    17     7    48 1   
    18     8     9 1   
    19     9    10 1   
    20     9    11 1   
    21     9    12 1   
    22    12    13 1   
    23    12    14 1   
    24    12    15 1   
    25    16    17 1   
    26    16    20 1   
    27    17    18 2   
    28    18    19 1   
    29    19    20 ar  
    30    19    21 ar  
    31    20    22 ar  
    32    21    23 ar  
    33    21    49 1   
    34    22    24 ar  
    35    22    50 1   
    36    23    24 ar  
    37    23    51 1   
    38    24    52 1   
    39    25    26 1   
    40    25    27 2   
    41    26    29 1   
    42    27    28 1   
    43    28    29 ar  
    44    28    33 ar  
    45    29    30 ar  
    46    30    31 ar  
    47    30    53 1   
    48    31    32 ar  
    49    31    54 1   
    50    32    33 ar  
    51    32    55 1   
    52    33    56 1   
    53    34    35 1   
    54    34    57 1   
    55    34    58 1   
    56    35    36 2   
    57    35    59 1   
    58    36    37 1   
    59    36    60 1   
    60    37    38 ar  
    61    37    39 ar  
    62    38    40 ar  
    63    38    61 1   
    64    39    41 ar  
    65    39    62 1   
    66    40    42 ar  
    67    40    63 1   
    68    41    42 ar  
    69    41    64 1   
    70    42    65 1   
@<TRIPOS>SUBSTRUCTURE
     1 P90         1 TEMP              0 ****  ****    0 ROOT
