@<TRIPOS>MOLECULE
P91
   44    47     1     0     0
SMALL
abcg2


@<TRIPOS>ATOM
      1 C1          -1.2990    -1.6880    -0.2400 ca         1 P91      -0.100000
      2 C2          -2.2910    -0.8360     0.2110 cp         1 P91       0.037000
      3 C3          -1.8930     0.3790     0.7780 ca         1 P91      -0.146600
      4 C4          -0.5710     0.7690     0.8900 ca         1 P91      -0.080600
      5 C5          -0.5450     2.1030     1.5510 c          1 P91       0.587600
      6 C6          -2.7410     1.4360     1.3820 c          1 P91       0.589600
      7 C7          -3.7080    -1.2440     0.0940 cp         1 P91      -0.040000
      8 O1           0.3980     2.7970     1.8350 o          1 P91      -0.474000
      9 O2          -3.9380     1.4630     1.5160 o          1 P91      -0.480000
     10 O3           6.5770    -0.2560     1.5830 oh         1 P91      -0.667000
     11 O4           3.8150    -1.9460    -1.8430 o          1 P91      -0.590100
     12 C8          -4.5990    -0.6110    -0.7690 ca         1 P91       0.154000
     13 N1          -1.8650     2.4180     1.7960 ns         1 P91      -0.491500
     14 C9          -5.9130    -1.0300    -0.8920 ca         1 P91      -0.102000
     15 C10         -6.3580    -2.1070    -0.1390 ca         1 P91      -0.091000
     16 C11         -5.4890    -2.7610     0.7210 ca         1 P91      -0.111000
     17 N3           4.5060    -1.7630     0.3150 ns         1 P91      -0.478900
     18 C17          5.9180    -1.9970     0.1050 c3         1 P91       0.094000
     19 C18          6.7290    -0.7260     0.2620 c3         1 P91       0.136600
     20 C16          2.2470    -1.2490    -0.2320 cc         1 P91      -0.094300
     21 C15          1.8700    -0.0650     0.3500 cd         1 P91      -0.077500
     22 BR           3.0510     1.2890     0.8310 br         1 P91      -0.012700
     23 N2           1.1410    -1.9940    -0.5180 na         1 P91      -0.045700
     24 C21          1.1250    -3.3070    -1.1310 c3         1 P91       0.059900
     25 C14          0.0360    -1.3040    -0.1290 ca         1 P91      -0.037200
     26 C13          0.4500    -0.0640     0.4320 ca         1 P91      -0.025800
     27 C12         -4.1750    -2.3300     0.8300 ca         1 P91      -0.087000
     28 CL          -4.0570     0.7170    -1.7420 cl         1 P91      -0.194000
     29 H1          -1.5700    -2.6340    -0.6920 ha         1 P91       0.129000
     30 HO3          6.7610     0.6870     1.5960 ho         1 P91       0.450000
     31 HN1         -2.1560     3.2710     2.2540 hn         1 P91       0.347500
     32 H9          -6.5820    -0.5240    -1.5740 ha         1 P91       0.132000
     33 H10         -7.3850    -2.4340    -0.2340 ha         1 P91       0.119000
     34 H11         -5.8300    -3.6040     1.3070 ha         1 P91       0.119000
     35 HN3          4.2170    -1.5300     1.2520 hn         1 P91       0.337500
     36 H17          6.2570    -2.7520     0.8170 h1         1 P91       0.068700
     37 H17A         6.0690    -2.4020    -0.8930 h1         1 P91       0.068700
     38 H18          6.3860     0.0110    -0.4720 h1         1 P91       0.035200
     39 H18A         7.7770    -0.9530     0.0290 h1         1 P91       0.035200
     40 H21          0.2960    -3.8820    -0.7280 h1         1 P91       0.062033
     41 H21A         1.0190    -3.2350    -2.2120 h1         1 P91       0.062033
     42 H21B         2.0410    -3.8410    -0.8970 h1         1 P91       0.062033
     43 H12         -3.4950    -2.8340     1.5050 ha         1 P91       0.117000
     44 C22          3.6070    -1.6880    -0.6670 c          1 P91       0.625300
@<TRIPOS>BOND
     1     1     2 ar  
     2     1    25 ar  
     3     1    29 1   
     4     2     3 ar  
     5     2     7 1   
     6     3     4 ar  
     7     3     6 1   
     8     4     5 1   
     9     4    26 ar  
    10     5     8 2   
    11     5    13 1   
    12     6     9 2   
    13     6    13 1   
    14     7    12 ar  
    15     7    27 ar  
    16    10    19 1   
    17    10    30 1   
    18    11    44 2   
    19    12    14 ar  
    20    12    28 1   
    21    13    31 1   
    22    14    15 ar  
    23    14    32 1   
    24    15    16 ar  
    25    15    33 1   
    26    16    27 ar  
    27    16    34 1   
    28    17    18 1   
    29    17    35 1   
    30    17    44 1   
    31    18    19 1   
    32    18    36 1   
    33    18    37 1   
    34    19    38 1   
    35    19    39 1   
    36    20    21 2   
    37    20    23 1   
    38    20    44 1   
    39    21    22 1   
    40    21    26 1   
    41    23    24 1   
    42    23    25 1   
    43    24    40 1   
    44    24    41 1   
    45    24    42 1   
    46    25    26 ar  
    47    27    43 1   
@<TRIPOS>SUBSTRUCTURE
     1 P91         1 TEMP              0 ****  ****    0 ROOT
