@<TRIPOS>MOLECULE
P91
   44    47     1     0     0
SMALL
No Charge or Current Charge


@<TRIPOS>ATOM
      1 C1          -1.3980    -1.8240    -0.2740 ca         1 P91      -0.100000
      2 C2          -2.3890    -0.9410     0.2340 cp         1 P91       0.037000
      3 C3          -1.9050     0.1830     0.9480 ca         1 P91      -0.146600
      4 C4          -0.5540     0.4650     1.1480 ca         1 P91      -0.080600
      5 C5          -0.4910     1.7370     1.9470 c          1 P91       0.587600
      6 C6          -2.7320     1.2330     1.6090 c          1 P91       0.589600
      7 C7          -3.8360    -1.2120     0.0120 cp         1 P91      -0.040000
      8 O1           0.4700     2.3630     2.3590 o          1 P91      -0.474000
      9 O2          -3.9440     1.3390     1.6920 o          1 P91      -0.480000
     10 O3           6.7200     0.3450     1.3200 oh         1 P91      -0.667000
     11 O4           3.9390    -3.0550    -1.0840 o          1 P91      -0.590100
     12 C8          -4.6140    -0.4210    -0.8730 ca         1 P91       0.154000
     13 N1          -1.8010     2.0710     2.1420 ns         1 P91      -0.491500
     14 C9          -5.9770    -0.7020    -1.0710 ca         1 P91      -0.102000
     15 C10         -6.5830    -1.7750    -0.3970 ca         1 P91      -0.091000
     16 C11         -5.8230    -2.5740     0.4740 ca         1 P91      -0.111000
     17 N3           4.7160    -1.3150     0.1090 ns         1 P91      -0.478900
     18 C17          6.1460    -1.5850    -0.0850 c3         1 P91       0.094000
     19 C18          7.0070    -0.3100     0.0730 c3         1 P91       0.136600
     20 C16          2.2900    -1.6130    -0.1020 cc         1 P91      -0.094300
     21 C15          1.8570    -0.4620     0.5920 cd         1 P91      -0.077500
     22 Br           2.9710     0.8890     1.3300 br         1 P91      -0.012700
     23 N2           1.0870    -2.2640    -0.4720 na         1 P91      -0.045700
     24 C21          0.9480    -3.5610    -1.1670 c3         1 P91       0.059900
     25 C14         -0.0250    -1.5420    -0.0620 ca         1 P91      -0.037200
     26 C13          0.4020    -0.4240     0.6170 ca         1 P91      -0.025800
     27 C12         -4.4600    -2.2960     0.6730 ca         1 P91      -0.087000
     28 Cl          -3.8950     0.9170    -1.7720 cl         1 P91      -0.194000
     29 H1          -1.7120    -2.7010    -0.8320 ha         1 P91       0.129000
     30 HO3          7.3140     1.1270     1.3790 ho         1 P91       0.450000
     31 HN1         -2.0650     2.8910     2.6650 hn         1 P91       0.347500
     32 H9          -6.5620    -0.0880    -1.7520 ha         1 P91       0.132000
     33 H10         -7.6380    -1.9900    -0.5520 ha         1 P91       0.119000
     34 H11         -6.2900    -3.4080     0.9930 ha         1 P91       0.119000
     35 HN3          4.4650    -0.5210     0.6830 hn         1 P91       0.337500
     36 H17          6.4670    -2.3340     0.6510 h1         1 P91       0.068700
     37 H17A         6.3100    -2.0020    -1.0870 h1         1 P91       0.068700
     38 H18          6.7940     0.3660    -0.7660 h1         1 P91       0.035200
     39 H18A         8.0690    -0.5870     0.0170 h1         1 P91       0.035200
     40 H21         -0.0000    -4.0430    -0.9050 h1         1 P91       0.062033
     41 H21A         0.9900    -3.4030    -2.2510 h1         1 P91       0.062033
     42 H21B         1.7560    -4.2370    -0.8660 h1         1 P91       0.062033
     43 H12         -3.8800    -2.9200     1.3490 ha         1 P91       0.117000
     44 C22          3.6900    -2.0650    -0.4090 c          1 P91       0.625300
@<TRIPOS>BOND
     1     1     2 ar  
     2     1    25 ar  
     3     1    29 1   
     4     2     3 ar  
     5     2     7 1   
     6     3     4 ar  
     7     3     6 1   
     8     4     5 1   
     9     4    26 ar  
    10     5     8 2   
    11     5    13 1   
    12     6     9 2   
    13     6    13 1   
    14     7    12 ar  
    15     7    27 ar  
    16    10    19 1   
    17    10    30 1   
    18    11    44 2   
    19    12    14 ar  
    20    12    28 1   
    21    13    31 1   
    22    14    15 ar  
    23    14    32 1   
    24    15    16 ar  
    25    15    33 1   
    26    16    27 ar  
    27    16    34 1   
    28    17    18 1   
    29    17    35 1   
    30    17    44 1   
    31    18    19 1   
    32    18    36 1   
    33    18    37 1   
    34    19    38 1   
    35    19    39 1   
    36    20    21 2   
    37    20    23 1   
    38    20    44 1   
    39    21    22 1   
    40    21    26 1   
    41    23    24 1   
    42    23    25 1   
    43    24    40 1   
    44    24    41 1   
    45    24    42 1   
    46    25    26 ar  
    47    27    43 1   
@<TRIPOS>SUBSTRUCTURE
     1 P91         1 TEMP              0 ****  ****    0 ROOT
