@<TRIPOS>MOLECULE
P92
   15    16     1     0     0
SMALL
bcc


@<TRIPOS>ATOM
      1 C1          -4.1480     5.8090    13.9310 ca         1 P92      -0.115000
      2 C2          -5.4130     5.4260    14.3650 ca         1 P92      -0.113000
      3 C3          -5.4880     4.2370    15.0660 ca         1 P92      -0.030400
      4 C4          -4.3580     3.4760    15.3190 ca         1 P92       0.037100
      5 C5          -3.1000     3.8390    14.8990 ca         1 P92      -0.087000
      6 C6          -3.0170     5.0350    14.1920 ca         1 P92      -0.124000
      7 C7          -6.0630     2.4110    16.2210 cs         1 P92       0.564500
      8 N1          -6.5240     3.5340    15.6480 ns         1 P92      -0.395100
      9 S1          -6.8910     1.2460    17.0330 s          1 P92      -0.492400
     10 O1          -4.7320     2.3680    16.0240 os         1 P92      -0.217200
     11 H1          -4.0400     6.7320    13.3780 ha         1 P92       0.142000
     12 H2          -6.2890     6.0260    14.1640 ha         1 P92       0.149000
     13 H3          -2.2280     3.2330    15.1050 ha         1 P92       0.162000
     14 H4          -2.0520     5.3710    13.8390 ha         1 P92       0.144000
     15 H5          -7.4980     3.7960    15.6530 hn         1 P92       0.373500
@<TRIPOS>BOND
     1     1     2 ar  
     2     1     6 ar  
     3     1    11 1   
     4     2     3 ar  
     5     2    12 1   
     6     3     4 ar  
     7     3     8 1   
     8     4     5 ar  
     9     4    10 1   
    10     5     6 ar  
    11     5    13 1   
    12     6    14 1   
    13     7     8 1   
    14     7     9 2   
    15     7    10 1   
    16     8    15 1   
@<TRIPOS>SUBSTRUCTURE
     1 P92         1 TEMP              0 ****  ****    0 ROOT
