@<TRIPOS>MOLECULE
P92
   15    16     1     0     0
SMALL
No Charge or Current Charge


@<TRIPOS>ATOM
      1 C1          -4.1440     5.8480    13.9090 ca         1 P92      -0.097000
      2 C2          -5.4170     5.4310    14.3620 ca         1 P92      -0.095000
      3 C3          -5.4660     4.2270    15.0680 ca         1 P92      -0.030400
      4 C4          -4.3560     3.4650    15.3250 ca         1 P92       0.037100
      5 C5          -3.0830     3.8480    14.8920 ca         1 P92      -0.069000
      6 C6          -2.9870     5.0630    14.1710 ca         1 P92      -0.106000
      7 C7          -6.0880     2.3470    16.2610 cs         1 P92       0.497500
      8 N1          -6.4910     3.5040    15.6580 ns         1 P92      -0.441600
      9 S1          -7.0270     1.2240    17.0680 s          1 P92      -0.492400
     10 O1          -4.7330     2.3470    16.0360 os         1 P92      -0.217200
     11 H1          -4.0480     6.7780    13.3540 ha         1 P92       0.124000
     12 H2          -6.3120     6.0190    14.1700 ha         1 P92       0.131000
     13 H3          -2.2080     3.2370    15.1000 ha         1 P92       0.144000
     14 H4          -2.0160     5.4000    13.8140 ha         1 P92       0.126000
     15 H5          -7.4640     3.7990    15.6490 hn         1 P92       0.487000
@<TRIPOS>BOND
     1     1     2 ar  
     2     1     6 ar  
     3     1    11 1   
     4     2     3 ar  
     5     2    12 1   
     6     3     4 ar  
     7     3     8 1   
     8     4     5 ar  
     9     4    10 1   
    10     5     6 ar  
    11     5    13 1   
    12     6    14 1   
    13     7     8 1   
    14     7     9 2   
    15     7    10 1   
    16     8    15 1   
@<TRIPOS>SUBSTRUCTURE
     1 P92         1 TEMP              0 ****  ****    0 ROOT
