@<TRIPOS>MOLECULE
P93
   28    29     1     0     0
SMALL
No Charge or Current Charge


@<TRIPOS>ATOM
      1 O1           1.3460    -2.2790    -0.0070 o          1 P93      -0.649100
      2 C5           1.1730    -1.0700    -0.0040 c          1 P93       0.653100
      3 N1           2.2390    -0.1620     0.0240 n          1 P93      -0.439800
      4 C9           2.0850     1.3110     0.0520 c5         1 P93       0.111500
      5 C8           3.5200     1.7700     0.4170 c5         1 P93      -0.094900
      6 C7           4.3860     0.7210    -0.3240 c5         1 P93      -0.094900
      7 C6           3.6510    -0.5980     0.0270 c5         1 P93       0.111500
      8 N           -0.0780    -0.5130    -0.0300 ns         1 P93      -0.510900
      9 C4          -1.3170    -1.2770    -0.0580 c3         1 P93       0.183300
     10 C3          -2.5150    -0.3710    -0.0750 cc         1 P93      -0.185300
     11 C           -2.9140     0.4670     0.9870 cc         1 P93      -0.170000
     12 C2          -3.4370    -0.1640    -1.0680 cd         1 P93       0.130900
     13 O           -4.3950     0.7540    -0.6980 os         1 P93      -0.237000
     14 C1          -4.0400     1.1230     0.5780 cd         1 P93       0.114900
     15 H1           1.7800     1.6860    -0.9350 h1         1 P93       0.047950
     16 H2           3.7260     2.7970     0.0960 hc         1 P93       0.053700
     17 H3           4.3820     0.8980    -1.4060 hc         1 P93       0.053700
     18 H4           3.9370    -0.9680     1.0210 h1         1 P93       0.047950
     19 H5          -0.1340     0.4950    -0.0320 hn         1 P93       0.303500
     20 H6          -1.3240    -1.9160    -0.9510 h1         1 P93       0.056700
     21 H7          -1.3590    -1.9240     0.8290 h1         1 P93       0.056700
     22 H8          -2.4140     0.5660     1.9460 ha         1 P93       0.148000
     23 H9          -3.5180    -0.5980    -2.0560 h4         1 P93       0.053100
     24 H10         -4.6610     1.8520     1.0830 h4         1 P93       0.053100
     25 H11          1.3530     1.6460     0.7990 h1         1 P93       0.047950
     26 H12          3.6850     1.7230     1.5000 hc         1 P93       0.053700
     27 H13          5.4310     0.7190     0.0060 hc         1 P93       0.053700
     28 H14          3.8480    -1.3860    -0.7110 h1         1 P93       0.047950
@<TRIPOS>BOND
     1     1     2 2   
     2     2     3 1   
     3     2     8 1   
     4     3     4 1   
     5     3     7 1   
     6     4     5 1   
     7     4    15 1   
     8     4    25 1   
     9     5     6 1   
    10     5    16 1   
    11     5    26 1   
    12     6     7 1   
    13     6    17 1   
    14     6    27 1   
    15     7    18 1   
    16     7    28 1   
    17     8     9 1   
    18     8    19 1   
    19     9    10 1   
    20     9    20 1   
    21     9    21 1   
    22    10    11 1   
    23    10    12 2   
    24    11    14 2   
    25    11    22 1   
    26    12    13 1   
    27    12    23 1   
    28    13    14 1   
    29    14    24 1   
@<TRIPOS>SUBSTRUCTURE
     1 P93         1 TEMP              0 ****  ****    0 ROOT
