@<TRIPOS>MOLECULE
P93
   28    29     1     0     0
SMALL
abcg2


@<TRIPOS>ATOM
      1 O1           1.2830    -2.1630     0.2320 o          1 P93      -0.649100
      2 C5           1.1460    -0.9560     0.0390 c          1 P93       0.653100
      3 N1           2.2000    -0.1100     0.0100 n          1 P93      -0.439800
      4 C9           2.1250     1.3430    -0.0680 c5         1 P93       0.111500
      5 C8           3.5330     1.7860     0.3180 c5         1 P93      -0.094900
      6 C7           4.4050     0.6330    -0.1710 c5         1 P93      -0.094900
      7 C6           3.5650    -0.5990     0.1470 c5         1 P93       0.111500
      8 N           -0.0820    -0.3830    -0.1330 ns         1 P93      -0.510900
      9 C4          -1.2680    -1.2030    -0.2570 c3         1 P93       0.183300
     10 C3          -2.4880    -0.3640    -0.0790 cc         1 P93      -0.185300
     11 C           -2.8480     0.4130     1.0710 cc         1 P93      -0.170000
     12 C2          -3.4860    -0.1750    -0.9730 cd         1 P93       0.130900
     13 O           -4.4290     0.6460    -0.4660 os         1 P93      -0.237000
     14 C1          -4.0290     0.9970     0.7740 cd         1 P93       0.114900
     15 H1           1.8740     1.6770    -1.0810 h1         1 P93       0.047950
     16 H2           3.7970     2.7460    -0.1230 hc         1 P93       0.053700
     17 H3           4.5650     0.7140    -1.2480 hc         1 P93       0.053700
     18 H4           3.7570    -0.9550     1.1640 h1         1 P93       0.047950
     19 H5          -0.1350     0.5250    -0.5660 hn         1 P93       0.303500
     20 H6          -1.3130    -1.7180    -1.2230 h1         1 P93       0.056700
     21 H7          -1.2370    -1.9780     0.5100 h1         1 P93       0.056700
     22 H8          -2.2940     0.5130     1.9910 ha         1 P93       0.148000
     23 H9          -3.6510    -0.5500    -1.9710 h4         1 P93       0.053100
     24 H10         -4.6790     1.6600     1.3230 h4         1 P93       0.053100
     25 H11          1.3690     1.7420     0.6120 h1         1 P93       0.047950
     26 H12          3.6100     1.8840     1.4030 hc         1 P93       0.053700
     27 H13          5.3820     0.6010     0.3100 hc         1 P93       0.053700
     28 H14          3.7630    -1.4250    -0.5360 h1         1 P93       0.047950
@<TRIPOS>BOND
     1     1     2 2   
     2     2     3 1   
     3     2     8 1   
     4     3     4 1   
     5     3     7 1   
     6     4     5 1   
     7     4    15 1   
     8     4    25 1   
     9     5     6 1   
    10     5    16 1   
    11     5    26 1   
    12     6     7 1   
    13     6    17 1   
    14     6    27 1   
    15     7    18 1   
    16     7    28 1   
    17     8     9 1   
    18     8    19 1   
    19     9    10 1   
    20     9    20 1   
    21     9    21 1   
    22    10    11 1   
    23    10    12 2   
    24    11    14 2   
    25    11    22 1   
    26    12    13 1   
    27    12    23 1   
    28    13    14 1   
    29    14    24 1   
@<TRIPOS>SUBSTRUCTURE
     1 P93         1 TEMP              0 ****  ****    0 ROOT
