@<TRIPOS>MOLECULE
P94
   41    43     1     0     0
SMALL
No Charge or Current Charge


@<TRIPOS>ATOM
      1 N28         -9.2510    -0.5240    -0.3710 n1         1 P94      -0.454000
      2 C27         -8.1050    -0.4570    -0.1560 cg         1 P94       0.324000
      3 C21         -3.9250    -0.1790     0.6340 ca         1 P94      -0.055300
      4 C22         -4.4840    -1.3910     0.1850 ca         1 P94      -0.112500
      5 C23         -5.8630    -1.4840    -0.0760 ca         1 P94      -0.069500
      6 C24         -6.6950    -0.3630     0.1100 ca         1 P94      -0.022000
      7 C25         -6.1380     0.8500     0.5570 ca         1 P94      -0.069500
      8 C26         -4.7590     0.9410     0.8170 ca         1 P94      -0.112500
      9 C14         -2.4310    -0.0790     0.9100 c3         1 P94      -0.040100
     10 C13         -1.6390     0.3380    -0.3450 c3         1 P94       0.158800
     11 N12         -0.1970     0.4190    -0.0450 n7         1 P94      -0.857400
     12 C11          0.6590     0.7850    -1.1870 c3         1 P94       0.203100
     13 C10          4.2340    -0.2630    -0.2380 ca         1 P94       0.322000
     14 C09          2.8850    -0.3080    -0.6350 ca         1 P94      -0.075000
     15 C08          2.1160     0.8670    -0.7540 ca         1 P94      -0.072300
     16 C07          2.7080     2.1110    -0.4680 ca         1 P94      -0.127000
     17 C06          4.0520     2.1810    -0.0710 ca         1 P94      -0.075000
     18 C05          4.8140     1.0030     0.0440 ca         1 P94      -0.126000
     19 C04          6.1620     1.0710     0.4430 ca         1 P94      -0.030000
     20 C03          6.8780    -0.1290     0.5430 ca         1 P94      -0.207000
     21 C02          6.2140    -1.3190     0.2390 ca         1 P94       0.615900
     22 N02          6.7820    -2.5240     0.3040 nv         1 P94      -1.067900
     23 N01          4.9450    -1.4120    -0.1350 nb         1 P94      -0.757000
     24 H1          -3.8500    -2.2620     0.0350 ha         1 P94       0.120000
     25 H2          -6.2820    -2.4270    -0.4230 ha         1 P94       0.125500
     26 H3          -6.7710     1.7240     0.7040 ha         1 P94       0.125500
     27 H4          -4.3390     1.8840     1.1610 ha         1 P94       0.120000
     28 H5          -2.2450     0.6460     1.7120 hc         1 P94       0.058700
     29 H6          -2.0500    -1.0420     1.2710 hc         1 P94       0.058700
     30 H7          -1.8230    -0.3990    -1.1400 h1         1 P94       0.033700
     31 H8          -2.0130     1.3090    -0.6970 h1         1 P94       0.033700
     32 H9          -0.0590     1.1260     0.6860 hn         1 P94       0.409000
     33 H11          0.5650     0.0420    -1.9910 h1         1 P94       0.038700
     34 H12          0.3510     1.7550    -1.6020 h1         1 P94       0.038700
     35 H13          2.4290    -1.2700    -0.8500 ha         1 P94       0.134000
     36 H14          2.1250     3.0260    -0.5540 ha         1 P94       0.110000
     37 H15          4.4980     3.1490     0.1470 ha         1 P94       0.111000
     38 H16          6.6380     2.0240     0.6680 ha         1 P94       0.116000
     39 H17          7.9200    -0.1350     0.8460 ha         1 P94       0.120000
     40 H18          7.5940    -2.6210     0.9040 hn         1 P94       0.478000
     41 H19          6.1340    -3.3020     0.2920 hn         1 P94       0.478000
@<TRIPOS>BOND
     1     1     2 3   
     2     2     6 1   
     3     3     4 ar  
     4     3     8 ar  
     5     3     9 1   
     6     4     5 ar  
     7     4    24 1   
     8     5     6 ar  
     9     5    25 1   
    10     6     7 ar  
    11     7     8 ar  
    12     7    26 1   
    13     8    27 1   
    14     9    10 1   
    15     9    28 1   
    16     9    29 1   
    17    10    11 1   
    18    10    30 1   
    19    10    31 1   
    20    11    12 1   
    21    11    32 1   
    22    12    15 1   
    23    12    33 1   
    24    12    34 1   
    25    13    14 ar  
    26    13    18 ar  
    27    13    23 ar  
    28    14    15 ar  
    29    14    35 1   
    30    15    16 ar  
    31    16    17 ar  
    32    16    36 1   
    33    17    18 ar  
    34    17    37 1   
    35    18    19 ar  
    36    19    20 ar  
    37    19    38 1   
    38    20    21 ar  
    39    20    39 1   
    40    21    22 1   
    41    21    23 ar  
    42    22    40 1   
    43    22    41 1   
@<TRIPOS>SUBSTRUCTURE
     1 P94         1 TEMP              0 ****  ****    0 ROOT
