@<TRIPOS>MOLECULE
P94
   41    43     1     0     0
SMALL
abcg2


@<TRIPOS>ATOM
      1 N28         -9.0960    -0.4550    -0.5460 n1         1 P94      -0.454000
      2 C27         -7.9750    -0.3950    -0.2870 cg         1 P94       0.324000
      3 C21         -3.8760    -0.1910     0.6730 ca         1 P94      -0.055300
      4 C22         -4.4560    -1.3980     0.2880 ca         1 P94      -0.112500
      5 C23         -5.8010    -1.4750    -0.0290 ca         1 P94      -0.069500
      6 C24         -6.5870    -0.3250     0.0360 ca         1 P94      -0.022000
      7 C25         -6.0220     0.8920     0.4180 ca         1 P94      -0.069500
      8 C26         -4.6770     0.9490     0.7320 ca         1 P94      -0.112500
      9 C14         -2.4080    -0.1110     0.9720 c3         1 P94      -0.040100
     10 C13         -1.6170     0.3270    -0.2600 c3         1 P94       0.158800
     11 N12         -0.2000     0.3830     0.0390 n7         1 P94      -0.857400
     12 C11          0.5960     0.7860    -1.1100 c3         1 P94       0.203100
     13 C10          4.1600    -0.2360    -0.2390 ca         1 P94       0.322000
     14 C09          2.8040    -0.2830    -0.6230 ca         1 P94      -0.075000
     15 C08          2.0510     0.8630    -0.7370 ca         1 P94      -0.072300
     16 C07          2.6400     2.1110    -0.4520 ca         1 P94      -0.127000
     17 C06          3.9550     2.1900    -0.0660 ca         1 P94      -0.075000
     18 C05          4.7360     1.0260     0.0460 ca         1 P94      -0.126000
     19 C04          6.1010     1.0380     0.4360 ca         1 P94      -0.030000
     20 C03          6.7930    -0.1260     0.5130 ca         1 P94      -0.207000
     21 C02          6.1190    -1.3500     0.2000 ca         1 P94       0.615900
     22 N02          6.8210    -2.5110     0.2330 nv         1 P94      -1.067900
     23 N01          4.8570    -1.3950    -0.1540 nb         1 P94      -0.757000
     24 H1          -3.8470    -2.2930     0.2390 ha         1 P94       0.120000
     25 H2          -6.2390    -2.4190    -0.3240 ha         1 P94       0.125500
     26 H3          -6.6350     1.7820     0.4700 ha         1 P94       0.125500
     27 H4          -4.2440     1.8940     1.0340 ha         1 P94       0.120000
     28 H5          -2.2350     0.6020     1.7840 hc         1 P94       0.058700
     29 H6          -2.0380    -1.0820     1.3070 hc         1 P94       0.058700
     30 H7          -1.7710    -0.4000    -1.0630 h1         1 P94       0.033700
     31 H8          -2.0170     1.2860    -0.6270 h1         1 P94       0.033700
     32 H9          -0.0480     1.0510     0.7870 hn         1 P94       0.409000
     33 H11          0.4540     0.0400    -1.8970 h1         1 P94       0.038700
     34 H12          0.2750     1.7500    -1.5320 h1         1 P94       0.038700
     35 H13          2.3660    -1.2510    -0.8390 ha         1 P94       0.134000
     36 H14          2.0460     3.0120    -0.5430 ha         1 P94       0.110000
     37 H15          4.4040     3.1510     0.1540 ha         1 P94       0.111000
     38 H16          6.5820     1.9800     0.6680 ha         1 P94       0.116000
     39 H17          7.8350    -0.1420     0.8030 ha         1 P94       0.120000
     40 H18          7.6800    -2.5430     0.7550 hn         1 P94       0.478000
     41 H19          6.2970    -3.3700     0.2160 hn         1 P94       0.478000
@<TRIPOS>BOND
     1     1     2 3   
     2     2     6 1   
     3     3     4 ar  
     4     3     8 ar  
     5     3     9 1   
     6     4     5 ar  
     7     4    24 1   
     8     5     6 ar  
     9     5    25 1   
    10     6     7 ar  
    11     7     8 ar  
    12     7    26 1   
    13     8    27 1   
    14     9    10 1   
    15     9    28 1   
    16     9    29 1   
    17    10    11 1   
    18    10    30 1   
    19    10    31 1   
    20    11    12 1   
    21    11    32 1   
    22    12    15 1   
    23    12    33 1   
    24    12    34 1   
    25    13    14 ar  
    26    13    18 ar  
    27    13    23 ar  
    28    14    15 ar  
    29    14    35 1   
    30    15    16 ar  
    31    16    17 ar  
    32    16    36 1   
    33    17    18 ar  
    34    17    37 1   
    35    18    19 ar  
    36    19    20 ar  
    37    19    38 1   
    38    20    21 ar  
    39    20    39 1   
    40    21    22 1   
    41    21    23 ar  
    42    22    40 1   
    43    22    41 1   
@<TRIPOS>SUBSTRUCTURE
     1 P94         1 TEMP              0 ****  ****    0 ROOT
