@<TRIPOS>MOLECULE
P95
   36    39     1     0     0
SMALL
No Charge or Current Charge


@<TRIPOS>ATOM
      1 O19          1.3760    -0.6500     0.0040 o          1 P95      -0.568100
      2 C19          2.2600     0.1980     0.0320 c          1 P95       0.662700
      3 N20          3.6030    -0.1220     0.0380 ns         1 P95      -0.307900
      4 C21          4.2440    -1.3750     0.0290 ca         1 P95       0.254900
      5 N21          3.6190    -2.4120     0.6260 nb         1 P95      -0.203000
      6 C37          4.2750    -3.5890     0.6080 ca         1 P95       0.140400
      7 C39          5.5380    -3.7130     0.0030 ca         1 P95      -0.258000
      8 C38          6.0990    -2.5650    -0.5840 ca         1 P95       0.140400
      9 N22          5.4510    -1.3830    -0.5710 nb         1 P95      -0.203000
     10 C18          1.9880     1.6680     0.0480 cc         1 P95      -0.264600
     11 C17          3.0070     2.6710     0.0790 cc         1 P95      -0.082000
     12 C16          2.5370     3.9580     0.0900 cd         1 P95      -0.290000
     13 S15          0.7680     4.0040     0.0640 ss         1 P95       0.311000
     14 C14          0.7210     2.2210     0.0380 cd         1 P95      -0.010400
     15 N13         -0.4340     1.4470     0.0090 ns         1 P95      -0.349100
     16 C12         -1.7630     1.8450    -0.0050 c          1 P95       0.543800
     17 O12         -2.1030     3.0240     0.0070 o          1 P95      -0.572100
     18 C26         -2.7170     0.6940    -0.0350 cc         1 P95       0.295200
     19 N30         -2.3330    -0.6020    -0.0480 nd         1 P95      -0.482100
     20 C29         -3.4880    -1.3850    -0.0760 ca         1 P95       0.024400
     21 C28         -4.6810    -0.6950    -0.0840 ca         1 P95      -0.178000
     22 S27         -4.4620     1.0470    -0.0560 ss         1 P95       0.169800
     23 C31         -3.5220    -2.8020    -0.0960 ca         1 P95       0.414900
     24 N32         -4.6880    -3.5080    -0.1230 nb         1 P95      -0.667000
     25 C33         -5.8510    -2.8040    -0.1300 ca         1 P95       0.349900
     26 C34         -5.8980    -1.3950    -0.1110 ca         1 P95      -0.127000
     27 H1           4.2320     0.6670     0.0030 hn         1 P95       0.173000
     28 H2           3.7840    -4.4380     1.0830 h4         1 P95       0.027100
     29 H3           6.0640    -4.6640    -0.0090 ha         1 P95       0.138000
     30 H4           7.0740    -2.5900    -1.0670 h4         1 P95       0.027100
     31 H5           4.0700     2.4430     0.0930 ha         1 P95       0.132000
     32 H6           3.1030     4.8810     0.1130 h4         1 P95       0.155000
     33 H7          -0.3220     0.4340    -0.0030 hn         1 P95       0.394500
     34 H8          -2.5990    -3.3810    -0.0900 h4         1 P95       0.044100
     35 H9          -6.7710    -3.3880    -0.1520 h4         1 P95       0.025100
     36 H10         -6.8530    -0.8760    -0.1180 ha         1 P95       0.136000
@<TRIPOS>BOND
     1     1     2 2   
     2     2     3 1   
     3     2    10 1   
     4     3     4 1   
     5     3    27 1   
     6     4     5 ar  
     7     4     9 ar  
     8     5     6 ar  
     9     6     7 ar  
    10     6    28 1   
    11     7     8 ar  
    12     7    29 1   
    13     8     9 ar  
    14     8    30 1   
    15    10    11 1   
    16    10    14 2   
    17    11    12 2   
    18    11    31 1   
    19    12    13 1   
    20    12    32 1   
    21    13    14 1   
    22    14    15 1   
    23    15    16 1   
    24    15    33 1   
    25    16    17 2   
    26    16    18 1   
    27    18    19 2   
    28    18    22 1   
    29    19    20 1   
    30    20    21 ar  
    31    20    23 ar  
    32    21    22 1   
    33    21    26 ar  
    34    23    24 ar  
    35    23    34 1   
    36    24    25 ar  
    37    25    26 ar  
    38    25    35 1   
    39    26    36 1   
@<TRIPOS>SUBSTRUCTURE
     1 P95         1 TEMP              0 ****  ****    0 ROOT
