@<TRIPOS>MOLECULE
P95
   36    39     1     0     0
SMALL
bcc


@<TRIPOS>ATOM
      1 O19          1.4870    -0.7230     0.0410 o          1 P95      -0.568100
      2 C19          2.3550     0.1360     0.0130 c          1 P95       0.729700
      3 N20          3.6910    -0.1470    -0.0250 ns         1 P95      -0.541400
      4 C21          4.3330    -1.3740    -0.0110 ca         1 P95       0.780900
      5 N21          3.6420    -2.4900     0.1320 nb         1 P95      -0.729000
      6 C37          4.3460    -3.6160     0.1350 ca         1 P95       0.468700
      7 C39          5.7210    -3.6400     0.0020 ca         1 P95      -0.406600
      8 C38          6.3360    -2.4050    -0.1350 ca         1 P95       0.468700
      9 N22          5.6530    -1.2730    -0.1430 nb         1 P95      -0.729000
     10 C18          2.0270     1.5720     0.0130 cc         1 P95      -0.264600
     11 C17          2.9420     2.6700     0.0310 cc         1 P95      -0.100000
     12 C16          2.3280     3.8740     0.0250 cd         1 P95      -0.163100
     13 S15          0.6140     3.7350    -0.0010 ss         1 P95       0.021200
     14 C14          0.7180     2.0160    -0.0020 cd         1 P95       0.134500
     15 N13         -0.3960     1.2160    -0.0130 ns         1 P95      -0.416100
     16 C12         -1.6640     1.6710    -0.0330 c          1 P95       0.610800
     17 O12         -1.9770     2.8470    -0.0480 o          1 P95      -0.572100
     18 C26         -2.6910     0.6060    -0.0340 cc         1 P95       0.295200
     19 N30         -2.4380    -0.6530    -0.0140 nd         1 P95      -0.482100
     20 C29         -3.6030    -1.3680    -0.0200 ca         1 P95      -0.040900
     21 C28         -4.7740    -0.5950    -0.0460 ca         1 P95      -0.051100
     22 S27         -4.3620     1.0780    -0.0620 ss         1 P95       0.042900
     23 C31         -3.7230    -2.7600    -0.0020 ca         1 P95       0.480200
     24 N32         -4.8970    -3.3530    -0.0100 nb         1 P95      -0.667000
     25 C33         -6.0060    -2.6000    -0.0360 ca         1 P95       0.415200
     26 C34         -6.0150    -1.2190    -0.0550 ca         1 P95      -0.210300
     27 H1           4.3380     0.6220    -0.1070 hn         1 P95       0.339500
     28 H2           3.7820    -4.5340     0.2520 h4         1 P95       0.027100
     29 H3           6.2830    -4.5620     0.0070 ha         1 P95       0.156000
     30 H4           7.4120    -2.3240    -0.2400 h4         1 P95       0.027100
     31 H5           4.0190     2.5830     0.0530 ha         1 P95       0.150000
     32 H6           2.7860     4.8510     0.0350 h4         1 P95       0.173000
     33 H7          -0.2150     0.2140     0.0040 hn         1 P95       0.394500
     34 H8          -2.8350    -3.3830     0.0200 h4         1 P95       0.044100
     35 H9          -6.9460    -3.1380    -0.0430 h4         1 P95       0.025100
     36 H10         -6.9440    -0.6680    -0.0760 ha         1 P95       0.154000
@<TRIPOS>BOND
     1     1     2 2   
     2     2     3 1   
     3     2    10 1   
     4     3     4 1   
     5     3    27 1   
     6     4     5 ar  
     7     4     9 ar  
     8     5     6 ar  
     9     6     7 ar  
    10     6    28 1   
    11     7     8 ar  
    12     7    29 1   
    13     8     9 ar  
    14     8    30 1   
    15    10    11 1   
    16    10    14 2   
    17    11    12 2   
    18    11    31 1   
    19    12    13 1   
    20    12    32 1   
    21    13    14 1   
    22    14    15 1   
    23    15    16 1   
    24    15    33 1   
    25    16    17 2   
    26    16    18 1   
    27    18    19 2   
    28    18    22 1   
    29    19    20 1   
    30    20    21 ar  
    31    20    23 ar  
    32    21    22 1   
    33    21    26 ar  
    34    23    24 ar  
    35    23    34 1   
    36    24    25 ar  
    37    25    26 ar  
    38    25    35 1   
    39    26    36 1   
@<TRIPOS>SUBSTRUCTURE
     1 P95         1 TEMP              0 ****  ****    0 ROOT
