@<TRIPOS>MOLECULE
P96
   62    64     1     0     0
SMALL
abcg2


@<TRIPOS>ATOM
      1 C            7.5240     2.6860    -0.8040 ca         1 P96      -0.180000
      2 N            5.8260     1.1190    -0.1520 nu         1 P96      -0.941200
      3 C01          1.5210    -0.9900    -0.3890 ca         1 P96      -0.021000
      4 C1          -0.6270    -0.3590    -1.3320 ca         1 P96      -0.124300
      5 N1          -2.4780     1.2480    -1.2260 n3         1 P96      -0.707600
      6 C02          0.9660    -2.1840     0.0620 ca         1 P96      -0.015000
      7 C2          -1.4800     0.6340    -2.0770 c3         1 P96       0.229100
      8 N2          -5.0840     3.9200     0.8680 n3         1 P96      -0.727600
      9 C03         -3.4700     1.9610    -2.0030 c6         1 P96       0.166800
     10 C3           0.7050    -0.0910    -1.0820 ca         1 P96      -0.036000
     11 C04          2.8940    -0.7000    -0.1440 cg         1 P96      -0.091000
     12 C4          -0.3680    -2.4630    -0.1870 ca         1 P96       0.085000
     13 C05          4.0580    -0.4690     0.0650 c1         1 P96      -0.145100
     14 C06          5.4690    -0.2030     0.3110 c3         1 P96       0.296900
     15 C07          7.1330     1.5540    -0.0730 ca         1 P96       0.302000
     16 C7          -1.1850    -1.5690    -0.8850 ca         1 P96       0.211100
     17 C08          8.0860     0.9280     0.7390 ca         1 P96      -0.180000
     18 C8          -4.5850     2.5070    -1.1250 c6         1 P96      -0.077400
     19 C09          9.3770     1.4350     0.8230 ca         1 P96      -0.070000
     20 C10         -4.0430     3.4480    -0.0480 c6         1 P96       0.193500
     21 C12         -6.2900     5.4860    -0.7320 c3         1 P96      -0.109100
     22 C13         -4.5880     4.9560     1.7660 c3         1 P96       0.171300
     23 C14         -5.5590     5.3310     2.8740 c3         1 P96      -0.109100
     24 C15         -2.9480     2.6880     0.7060 c6         1 P96      -0.077400
     25 C16         -1.8930     2.1240    -0.2310 c6         1 P96       0.166800
     26 C17          9.7560     2.5580     0.1030 ca         1 P96      -0.156000
     27 C18          8.8140     3.1760    -0.7140 ca         1 P96      -0.070000
     28 I2          -1.1470    -4.2900     0.5150 i          1 P96      -0.312000
     29 C11         -6.3370     4.2980     0.2270 c3         1 P96       0.171300
     30 H            6.8030     3.1800    -1.4460 ha         1 P96       0.110000
     31 H18          9.0860     4.0520    -1.2890 ha         1 P96       0.108500
     32 HA           5.3410     1.4100    -0.9870 hn         1 P96       0.469000
     33 H061         6.0710    -0.9930    -0.1600 h1         1 P96       0.055700
     34 H062         5.6520    -0.2800     1.3870 h1         1 P96       0.055700
     35 H02          1.5810    -2.8880     0.6040 ha         1 P96       0.133000
     36 H3           1.1250     0.8420    -1.4340 ha         1 P96       0.123000
     37 H21C        -0.8180     1.3820    -2.5450 h1         1 P96       0.039200
     38 H22C        -1.9950     0.1270    -2.8970 h1         1 P96       0.039200
     39 H031        -3.0190     2.7940    -2.5730 h1         1 P96       0.029450
     40 H032        -3.9010     1.2770    -2.7380 h1         1 P96       0.029450
     41 H161        -1.1650     1.5650     0.3590 h1         1 P96       0.029450
     42 H162        -1.3410     2.9570    -0.7060 h1         1 P96       0.029450
     43 H1          -2.7680    -2.6610    -0.8920 ho         1 P96       0.477000
     44 H10         -3.5610     4.2980    -0.5670 h1         1 P96       0.016700
     45 H131        -3.6800     4.5880     2.2430 h1         1 P96       0.038200
     46 H132        -4.2870     5.8660     1.2220 h1         1 P96       0.038200
     47 H111        -6.7400     3.4300    -0.2970 h1         1 P96       0.038200
     48 H112        -7.0660     4.5060     1.0120 h1         1 P96       0.038200
     49 H81C        -5.2970     3.0110    -1.7800 hc         1 P96       0.054200
     50 H82C        -5.1120     1.6740    -0.6490 hc         1 P96       0.054200
     51 H08          7.8350     0.0450     1.3100 ha         1 P96       0.110000
     52 H09         10.0930     0.9350     1.4620 ha         1 P96       0.108500
     53 H17         10.7650     2.9420     0.1710 ha         1 P96       0.113000
     54 H151        -2.4350     3.3290     1.4240 hc         1 P96       0.054200
     55 H152        -3.4120     1.8740     1.2720 hc         1 P96       0.054200
     56 H121        -5.9900     6.4080    -0.2320 hc         1 P96       0.035200
     57 H122        -5.5980     5.3190    -1.5590 hc         1 P96       0.035200
     58 H123        -7.2780     5.6560    -1.1610 hc         1 P96       0.035200
     59 H141        -6.4210     5.8940     2.5170 hc         1 P96       0.035200
     60 H142        -5.9260     4.4410     3.3890 hc         1 P96       0.035200
     61 H143        -5.0500     5.9560     3.6080 hc         1 P96       0.035200
     62 O1          -2.4690    -1.7870    -1.1760 oh         1 P96      -0.503100
@<TRIPOS>BOND
     1     1    15 ar  
     2     1    27 ar  
     3     1    30 1   
     4     2    14 1   
     5     2    15 1   
     6     2    32 1   
     7     3     6 ar  
     8     3    10 ar  
     9     3    11 1   
    10     4     7 1   
    11     4    10 ar  
    12     4    16 ar  
    13     5     7 1   
    14     5     9 1   
    15     5    25 1   
    16     6    12 ar  
    17     6    35 1   
    18     7    37 1   
    19     7    38 1   
    20     8    20 1   
    21     8    22 1   
    22     8    29 1   
    23     9    18 1   
    24     9    39 1   
    25     9    40 1   
    26    10    36 1   
    27    11    13 3   
    28    12    16 ar  
    29    12    28 1   
    30    13    14 1   
    31    14    33 1   
    32    14    34 1   
    33    15    17 ar  
    34    16    62 1   
    35    17    19 ar  
    36    17    51 1   
    37    18    20 1   
    38    18    49 1   
    39    18    50 1   
    40    19    26 ar  
    41    19    52 1   
    42    20    24 1   
    43    20    44 1   
    44    21    29 1   
    45    21    56 1   
    46    21    57 1   
    47    21    58 1   
    48    22    23 1   
    49    22    45 1   
    50    22    46 1   
    51    23    59 1   
    52    23    60 1   
    53    23    61 1   
    54    24    25 1   
    55    24    54 1   
    56    24    55 1   
    57    25    41 1   
    58    25    42 1   
    59    26    27 ar  
    60    26    53 1   
    61    27    31 1   
    62    29    47 1   
    63    29    48 1   
    64    43    62 1   
@<TRIPOS>SUBSTRUCTURE
     1 P96         1 TEMP              0 ****  ****    0 ROOT
