@<TRIPOS>MOLECULE
P96
   62    64     1     0     0
SMALL
No Charge or Current Charge


@<TRIPOS>ATOM
      1 C            7.9170     1.6710    -1.3980 ca         1 P96      -0.180000
      2 N            5.9850     0.8510    -0.2120 nu         1 P96      -0.941200
      3 C01          1.4900    -0.8770    -0.3870 ca         1 P96      -0.021000
      4 C1          -0.6460    -0.4240    -1.4950 ca         1 P96      -0.124300
      5 N1          -2.5680     1.2010    -1.3220 n3         1 P96      -0.707600
      6 C02          1.0930    -2.2050    -0.1570 ca         1 P96      -0.015000
      7 C2          -1.5650     0.5640    -2.2110 c3         1 P96       0.229100
      8 N2          -5.2090     3.9070     0.9220 n3         1 P96      -0.727600
      9 C03         -3.5570     1.9970    -2.0870 c6         1 P96       0.166800
     10 C3           0.6240     0.0070    -1.0560 ca         1 P96      -0.036000
     11 C04          2.7740    -0.4230     0.0610 cg         1 P96      -0.091000
     12 C4          -0.1650    -2.6470    -0.5980 ca         1 P96       0.085000
     13 C05          3.8590    -0.0290     0.4420 c1         1 P96      -0.145100
     14 C06          5.1450     0.4750     0.9310 c3         1 P96       0.296900
     15 C07          7.2760     1.3780    -0.1830 ca         1 P96       0.302000
     16 C7          -1.0370    -1.7630    -1.2690 ca         1 P96       0.211100
     17 C08          7.9460     1.6210     1.0310 ca         1 P96      -0.180000
     18 C8          -4.6790     2.5460    -1.1780 c6         1 P96      -0.077400
     19 C09          9.2480     2.1540     1.0270 ca         1 P96      -0.070000
     20 C10         -4.1190     3.4140    -0.0090 c6         1 P96       0.193500
     21 C12         -5.9870     5.9060    -0.4980 c3         1 P96      -0.109100
     22 C13         -4.6930     4.6780     2.0980 c3         1 P96       0.171300
     23 C14         -5.7530     5.1050     3.1370 c3         1 P96      -0.109100
     24 C15         -3.0310     2.5750     0.7290 c6         1 P96      -0.077400
     25 C16         -1.9630     2.0180    -0.2390 c6         1 P96       0.166800
     26 C17          9.8830     2.4450    -0.1910 ca         1 P96      -0.156000
     27 C18          9.2190     2.2040    -1.4050 ca         1 P96      -0.070000
     28 I2          -0.7510    -4.7100    -0.2380 i          1 P96      -0.312000
     29 C11         -6.3480     4.5920     0.2310 c3         1 P96       0.171300
     30 H            7.4090     1.4870    -2.3400 ha         1 P96       0.110000
     31 H18          9.7100     2.4290    -2.3500 ha         1 P96       0.108500
     32 HA           5.5780     0.7080    -1.1370 hn         1 P96       0.469000
     33 H061         5.6330    -0.3080     1.5290 h1         1 P96       0.055700
     34 H062         4.9650     1.3430     1.5810 h1         1 P96       0.055700
     35 H02          1.7550    -2.8960     0.3590 ha         1 P96       0.133000
     36 H3           0.9350     1.0350    -1.2300 ha         1 P96       0.123000
     37 H21C        -0.9490     1.3370    -2.6910 h1         1 P96       0.039200
     38 H22C        -2.0760     0.0310    -3.0250 h1         1 P96       0.039200
     39 H031        -3.0590     2.8400    -2.5900 h1         1 P96       0.029450
     40 H032        -4.0160     1.3780    -2.8710 h1         1 P96       0.029450
     41 H161        -1.2550     1.4170     0.3500 h1         1 P96       0.029450
     42 H162        -1.3950     2.8570    -0.6690 h1         1 P96       0.029450
     43 H1          -2.3370    -3.1580    -1.4350 ho         1 P96       0.477000
     44 H10         -3.6110     4.2820    -0.4550 h1         1 P96       0.016700
     45 H131        -3.9790     4.0660     2.6610 h1         1 P96       0.038200
     46 H132        -4.1500     5.5720     1.7620 h1         1 P96       0.038200
     47 H111        -6.8220     3.9160    -0.4910 h1         1 P96       0.038200
     48 H112        -7.1460     4.8150     0.9510 h1         1 P96       0.038200
     49 H81C        -5.3510     3.1320    -1.8160 hc         1 P96       0.054200
     50 H82C        -5.2670     1.7100    -0.7760 hc         1 P96       0.054200
     51 H08          7.4680     1.4020     1.9800 ha         1 P96       0.110000
     52 H09          9.7620     2.3400     1.9680 ha         1 P96       0.108500
     53 H17         10.8900     2.8570    -0.1950 ha         1 P96       0.113000
     54 H151        -2.5020     3.1820     1.4710 hc         1 P96       0.054200
     55 H152        -3.5030     1.7440     1.2710 hc         1 P96       0.054200
     56 H121        -5.5780     6.6470     0.1990 hc         1 P96       0.035200
     57 H122        -5.2530     5.7310    -1.2930 hc         1 P96       0.035200
     58 H123        -6.8840     6.3360    -0.9570 hc         1 P96       0.035200
     59 H141        -6.4040     5.8950     2.7450 hc         1 P96       0.035200
     60 H142        -6.3720     4.2500     3.4350 hc         1 P96       0.035200
     61 H143        -5.2600     5.4980     4.0330 hc         1 P96       0.035200
     62 O1          -2.2540    -2.2180    -1.7040 oh         1 P96      -0.503100
@<TRIPOS>BOND
     1     1    15 ar  
     2     1    27 ar  
     3     1    30 1   
     4     2    14 1   
     5     2    15 1   
     6     2    32 1   
     7     3     6 ar  
     8     3    10 ar  
     9     3    11 1   
    10     4     7 1   
    11     4    10 ar  
    12     4    16 ar  
    13     5     7 1   
    14     5     9 1   
    15     5    25 1   
    16     6    12 ar  
    17     6    35 1   
    18     7    37 1   
    19     7    38 1   
    20     8    20 1   
    21     8    22 1   
    22     8    29 1   
    23     9    18 1   
    24     9    39 1   
    25     9    40 1   
    26    10    36 1   
    27    11    13 3   
    28    12    16 ar  
    29    12    28 1   
    30    13    14 1   
    31    14    33 1   
    32    14    34 1   
    33    15    17 ar  
    34    16    62 1   
    35    17    19 ar  
    36    17    51 1   
    37    18    20 1   
    38    18    49 1   
    39    18    50 1   
    40    19    26 ar  
    41    19    52 1   
    42    20    24 1   
    43    20    44 1   
    44    21    29 1   
    45    21    56 1   
    46    21    57 1   
    47    21    58 1   
    48    22    23 1   
    49    22    45 1   
    50    22    46 1   
    51    23    59 1   
    52    23    60 1   
    53    23    61 1   
    54    24    25 1   
    55    24    54 1   
    56    24    55 1   
    57    25    41 1   
    58    25    42 1   
    59    26    27 ar  
    60    26    53 1   
    61    27    31 1   
    62    29    47 1   
    63    29    48 1   
    64    43    62 1   
@<TRIPOS>SUBSTRUCTURE
     1 P96         1 TEMP              0 ****  ****    0 ROOT
