@<TRIPOS>MOLECULE
P97
   50    52     1     0     0
SMALL
No Charge or Current Charge


@<TRIPOS>ATOM
      1 N4           3.9810    -2.0640    -1.2360 n8         1 P97      -0.981200
      2 C3           3.3900    -0.9130    -0.4610 c3         1 P97       0.101500
      3 C5           1.8660    -1.0740    -0.0830 c          1 P97       0.567100
      4 O7           1.3480    -2.1860    -0.0160 o          1 P97      -0.617100
      5 C2           4.2400    -0.6150     0.8050 c3         1 P97      -0.024100
      6 C1           5.6300    -0.0690     0.4900 ca         1 P97      -0.070300
      7 C8           5.7830     1.2570     0.0380 ca         1 P97      -0.097000
      8 C12          6.7740    -0.8740     0.6630 ca         1 P97      -0.097000
      9 C9           7.0610     1.7690    -0.2430 ca         1 P97      -0.111500
     10 C11          8.0530    -0.3620     0.3820 ca         1 P97      -0.111500
     11 C10          8.1970     0.9600    -0.0720 ca         1 P97      -0.110000
     12 N6           1.0950     0.0790     0.1930 n          1 P97      -0.394800
     13 C13         -0.3380    -0.0050     0.5930 c5         1 P97       0.025700
     14 C14         -1.3140    -0.3460    -0.5800 c          1 P97       0.604100
     15 O15         -1.0660    -0.3690    -1.7800 o          1 P97      -0.590100
     16 C19         -0.5870     1.4520     1.0900 c5         1 P97      -0.083400
     17 C20          0.2560     2.2840     0.0920 c5         1 P97      -0.095400
     18 C21          1.5750     1.4710     0.0250 c5         1 P97       0.110000
     19 N16         -2.5550    -0.6540    -0.0650 ns         1 P97      -0.503900
     20 C17         -3.7280    -0.9690    -0.8790 c3         1 P97       0.153300
     21 C18         -5.0130    -0.6130    -0.1500 ca         1 P97      -0.159300
     22 C22         -5.8270    -1.6320     0.3780 ca         1 P97       0.350900
     23 N23         -6.9860    -1.3920     1.0360 nb         1 P97      -0.660000
     24 C24         -7.3720    -0.1050     1.1880 ca         1 P97       0.347900
     25 C25         -6.6280     0.9750     0.6960 ca         1 P97      -0.163000
     26 C26         -5.4300     0.7210     0.0150 ca         1 P97       0.163000
     27 Cl27        -4.4860     2.0730    -0.6080 cl         1 P97      -0.175000
     28 HN4          3.8090    -2.9300    -0.7100 hn         1 P97       0.409500
     29 HN4A         3.4310    -2.2090    -2.0910 hn         1 P97       0.409500
     30 H3           3.4520    -0.0330    -1.1140 h1         1 P97       0.075700
     31 H2           4.3100    -1.5270     1.4110 hc         1 P97       0.052700
     32 H2A          3.7130     0.1090     1.4360 hc         1 P97       0.052700
     33 H8           4.9100     1.8930    -0.0950 ha         1 P97       0.108500
     34 H12          6.6730    -1.8990     1.0130 ha         1 P97       0.108500
     35 H9           7.1710     2.7940    -0.5930 ha         1 P97       0.110000
     36 H11          8.9310    -0.9890     0.5160 ha         1 P97       0.110000
     37 H10          9.1860     1.3570    -0.2890 ha         1 P97       0.110000
     38 H13         -0.4920    -0.7360     1.3980 h1         1 P97       0.077700
     39 H19         -1.6460     1.7380     1.0920 hc         1 P97       0.059700
     40 H19A        -0.2190     1.5830     2.1150 hc         1 P97       0.059700
     41 H20         -0.2260     2.3360    -0.8910 hc         1 P97       0.063700
     42 H20A         0.4190     3.3150     0.4290 hc         1 P97       0.063700
     43 H21          2.2510     1.7520     0.8430 h1         1 P97       0.049700
     44 H21A         2.0920     1.6320    -0.9300 h1         1 P97       0.049700
     45 HN16        -2.6620    -0.6130     0.9410 hn         1 P97       0.314500
     46 H17         -3.6790    -0.4160    -1.8270 h1         1 P97       0.072700
     47 H17A        -3.7120    -2.0410    -1.1200 h1         1 P97       0.072700
     48 H22         -5.5450    -2.6790     0.2730 h4         1 P97       0.024100
     49 H24         -8.3080     0.0630     1.7210 h4         1 P97       0.026100
     50 H25         -6.9790     1.9920     0.8420 ha         1 P97       0.140000
@<TRIPOS>BOND
     1     1     2 1   
     2     1    28 1   
     3     1    29 1   
     4     2     3 1   
     5     2     5 1   
     6     2    30 1   
     7     3     4 2   
     8     3    12 1   
     9     5     6 1   
    10     5    31 1   
    11     5    32 1   
    12     6     7 ar  
    13     6     8 ar  
    14     7     9 ar  
    15     7    33 1   
    16     8    10 ar  
    17     8    34 1   
    18     9    11 ar  
    19     9    35 1   
    20    10    11 ar  
    21    10    36 1   
    22    11    37 1   
    23    12    13 1   
    24    12    18 1   
    25    13    14 1   
    26    13    16 1   
    27    13    38 1   
    28    14    15 2   
    29    14    19 1   
    30    16    17 1   
    31    16    39 1   
    32    16    40 1   
    33    17    18 1   
    34    17    41 1   
    35    17    42 1   
    36    18    43 1   
    37    18    44 1   
    38    19    20 1   
    39    19    45 1   
    40    20    21 1   
    41    20    46 1   
    42    20    47 1   
    43    21    22 ar  
    44    21    26 ar  
    45    22    23 ar  
    46    22    48 1   
    47    23    24 ar  
    48    24    25 ar  
    49    24    49 1   
    50    25    26 ar  
    51    25    50 1   
    52    26    27 1   
@<TRIPOS>SUBSTRUCTURE
     1 P97         1 TEMP              0 ****  ****    0 ROOT
