@<TRIPOS>MOLECULE
P97
   50    52     1     0     0
SMALL
bcc


@<TRIPOS>ATOM
      1 N4           3.6610    -1.7580    -1.2540 n8         1 P97      -0.870800
      2 C3           3.1830    -0.6480    -0.4670 c3         1 P97       0.101500
      3 C5           1.7360    -0.8110     0.0060 c          1 P97       0.634100
      4 O7           1.2350    -1.9210     0.1360 o          1 P97      -0.617100
      5 C2           4.0650    -0.4630     0.7830 c3         1 P97      -0.024100
      6 C1           5.4750    -0.0800     0.4400 ca         1 P97      -0.070300
      7 C8           5.8230     1.2610     0.2980 ca         1 P97      -0.115000
      8 C12          6.4570    -1.0460     0.2350 ca         1 P97      -0.115000
      9 C9           7.1180     1.6320    -0.0380 ca         1 P97      -0.129500
     10 C11          7.7550    -0.6810    -0.0970 ca         1 P97      -0.129500
     11 C10          8.0900     0.6590    -0.2370 ca         1 P97      -0.128000
     12 N6           1.0570     0.3020     0.3320 n          1 P97      -0.461800
     13 C13         -0.2960     0.1910     0.8340 c5         1 P97       0.025700
     14 C14         -1.2340    -0.3090    -0.2600 c          1 P97       0.671100
     15 O15         -1.0180    -0.1040    -1.4410 o          1 P97      -0.590100
     16 C19         -0.6400     1.6290     1.2420 c5         1 P97      -0.083400
     17 C20          0.1730     2.4750     0.2690 c5         1 P97      -0.095400
     18 C21          1.4680     1.6870     0.1130 c5         1 P97       0.110000
     19 N16         -2.3290    -0.9340     0.2070 ns         1 P97      -0.570900
     20 C17         -3.4140    -1.4050    -0.6210 c3         1 P97       0.153300
     21 C18         -4.7380    -0.8660    -0.1590 ca         1 P97      -0.224600
     22 C22         -5.6880    -1.7120     0.4040 ca         1 P97       0.416200
     23 N23         -6.8760    -1.3260     0.8470 nb         1 P97      -0.660000
     24 C24         -7.1790    -0.0390     0.7480 ca         1 P97       0.413200
     25 C25         -6.3220     0.9080     0.2090 ca         1 P97      -0.246300
     26 C26         -5.0890     0.4770    -0.2460 ca         1 P97       0.071400
     27 CL27        -3.9980     1.6200    -0.9380 cl         1 P97      -0.083400
     28 HN4          3.4950    -2.6260    -0.7580 hn         1 P97       0.354300
     29 HN4A         3.1320    -1.8220    -2.1150 hn         1 P97       0.354300
     30 H3           3.2670     0.2510    -1.0830 h1         1 P97       0.075700
     31 H2           4.0500    -1.3940     1.3560 hc         1 P97       0.052700
     32 H2A          3.6260     0.3010     1.4290 hc         1 P97       0.052700
     33 H8           5.0720     2.0280     0.4560 ha         1 P97       0.126500
     34 H12          6.2050    -2.0940     0.3430 ha         1 P97       0.126500
     35 H9           7.3700     2.6800    -0.1410 ha         1 P97       0.128000
     36 H11          8.5060    -1.4460    -0.2470 ha         1 P97       0.128000
     37 H10          9.1020     0.9450    -0.4950 ha         1 P97       0.128000
     38 H13         -0.3340    -0.4830     1.6940 h1         1 P97       0.077700
     39 H19         -1.7100     1.8310     1.2090 hc         1 P97       0.059700
     40 H19A        -0.3040     1.7960     2.2680 hc         1 P97       0.059700
     41 H20         -0.3390     2.5500    -0.6910 hc         1 P97       0.063700
     42 H20A         0.3530     3.4860     0.6320 hc         1 P97       0.063700
     43 H21          2.2080     1.9950     0.8590 h1         1 P97       0.049700
     44 H21A         1.9100     1.8250    -0.8740 h1         1 P97       0.049700
     45 HN16        -2.3960    -1.1130     1.1970 hn         1 P97       0.314500
     46 H17         -3.2140    -1.1060    -1.6490 h1         1 P97       0.072700
     47 H17A        -3.4510    -2.4970    -0.6070 h1         1 P97       0.072700
     48 H22         -5.4570    -2.7690     0.4930 h4         1 P97       0.024100
     49 H24         -8.1520     0.2670     1.1150 h4         1 P97       0.026100
     50 H25         -6.6150     1.9470     0.1480 ha         1 P97       0.158000
@<TRIPOS>BOND
     1     1     2 1   
     2     1    28 1   
     3     1    29 1   
     4     2     3 1   
     5     2     5 1   
     6     2    30 1   
     7     3     4 2   
     8     3    12 1   
     9     5     6 1   
    10     5    31 1   
    11     5    32 1   
    12     6     7 ar  
    13     6     8 ar  
    14     7     9 ar  
    15     7    33 1   
    16     8    10 ar  
    17     8    34 1   
    18     9    11 ar  
    19     9    35 1   
    20    10    11 ar  
    21    10    36 1   
    22    11    37 1   
    23    12    13 1   
    24    12    18 1   
    25    13    14 1   
    26    13    16 1   
    27    13    38 1   
    28    14    15 2   
    29    14    19 1   
    30    16    17 1   
    31    16    39 1   
    32    16    40 1   
    33    17    18 1   
    34    17    41 1   
    35    17    42 1   
    36    18    43 1   
    37    18    44 1   
    38    19    20 1   
    39    19    45 1   
    40    20    21 1   
    41    20    46 1   
    42    20    47 1   
    43    21    22 ar  
    44    21    26 ar  
    45    22    23 ar  
    46    22    48 1   
    47    23    24 ar  
    48    24    25 ar  
    49    24    49 1   
    50    25    26 ar  
    51    25    50 1   
    52    26    27 1   
@<TRIPOS>SUBSTRUCTURE
     1 P97         1 TEMP              0 ****  ****    0 ROOT
