@<TRIPOS>MOLECULE
P98
   53    57     1     0     0
SMALL
bcc


@<TRIPOS>ATOM
      1 C25          4.3730    -3.8890     0.2520 ca         1 P98      -0.121000
      2 C15         -8.3940    -1.0910     0.2670 ca         1 P98      -0.124000
      3 C14         -8.3700     0.3200     0.3120 ca         1 P98      -0.121000
      4 C24          4.5250    -3.2650    -0.9800 ca         1 P98      -0.123000
      5 C26          3.9390    -3.1590     1.3510 ca         1 P98      -0.123000
      6 C16         -7.2260    -1.7970     0.1730 ca         1 P98      -0.109000
      7 C9          -4.7480    -1.7840     0.0190 ca         1 P98      -0.085000
      8 C13         -7.1840     1.0010     0.2620 ca         1 P98      -0.165300
      9 C4           1.3590     2.9540    -0.3980 ca         1 P98      -0.032000
     10 C23          4.2400    -1.9150    -1.1160 ca         1 P98      -0.120500
     11 C27          3.6650    -1.8050     1.2240 ca         1 P98      -0.120500
     12 C1           0.0920     2.4100    -0.2560 ca         1 P98      -0.229000
     13 C10         -3.5910    -1.0610    -0.0330 ca         1 P98      -0.221300
     14 C3           1.0040     0.1640    -0.0080 ca         1 P98      -0.173000
     15 C11         -5.9880    -1.1190     0.1190 ca         1 P98      -0.147300
     16 C12         -5.9620     0.2960     0.1630 ca         1 P98       0.407600
     17 C17          2.4600     2.1090    -0.3430 ca         1 P98       0.039400
     18 C18          2.2570     0.7360    -0.1440 ca         1 P98      -0.033200
     19 C22          3.8190    -1.1870    -0.0100 ca         1 P98      -0.001200
     20 C2          -0.0840     1.0290    -0.0650 ca         1 P98       0.157100
     21 C7          -3.6730     0.3500     0.0200 ca         1 P98       0.430600
     22 C20          4.4050     1.2280    -0.3360 cc         1 P98       0.433800
     23 C29          6.6040     2.0720    -1.1450 c3         1 P98      -0.083600
     24 C30          6.3700     1.0540     1.1530 c3         1 P98      -0.083600
     25 C6          -2.4550     1.2310    -0.0640 c3         1 P98       0.087100
     26 C28          5.8860     1.0260    -0.3020 c3         1 P98      -0.074000
     27 N8          -4.8060     0.9950     0.1160 nb         1 P98      -0.677000
     28 N21          3.8050     2.3750    -0.4570 nd         1 P98      -0.567100
     29 N19          3.5190     0.1910    -0.1460 na         1 P98      -0.103400
     30 H1           4.5900    -4.9440     0.3550 ha         1 P98       0.136000
     31 H3          -9.3010     0.8660     0.3880 ha         1 P98       0.134000
     32 H4           4.8580    -3.8310    -1.8400 ha         1 P98       0.138000
     33 H5           3.8190    -3.6420     2.3120 ha         1 P98       0.138000
     34 H6          -7.2370    -2.8790     0.1390 ha         1 P98       0.133000
     35 H7          -4.7220    -2.8660    -0.0180 ha         1 P98       0.137000
     36 H8          -7.1570     2.0820     0.2960 ha         1 P98       0.148000
     37 H9           1.4810     4.0190    -0.5460 ha         1 P98       0.147000
     38 H10          4.3420    -1.4250    -2.0770 ha         1 P98       0.147500
     39 H11          3.3360    -1.2300     2.0800 ha         1 P98       0.147500
     40 H12         -0.7590     3.0750    -0.2930 ha         1 P98       0.138000
     41 H13         -2.6360    -1.5590    -0.1150 ha         1 P98       0.158000
     42 H14          0.8610    -0.8990     0.1390 ha         1 P98       0.153000
     43 H15          6.4000     3.0800    -0.7840 hc         1 P98       0.042200
     44 H16          7.6810     1.9090    -1.0980 hc         1 P98       0.042200
     45 H17          6.3020     2.0210    -2.1910 hc         1 P98       0.042200
     46 H18          5.8850     0.2880     1.7590 hc         1 P98       0.042200
     47 H19          7.4450     0.8770     1.1960 hc         1 P98       0.042200
     48 H20          6.1650     2.0250     1.6070 hc         1 P98       0.042200
     49 H21         -2.4630     1.7480    -1.0320 h1         1 P98       0.058200
     50 H22         -2.5200     1.9990     0.7150 h1         1 P98       0.058200
     51 H23          6.1140     0.0390    -0.7120 hc         1 P98       0.056700
     52 O5          -1.2980     0.4470     0.0800 os         1 P98      -0.330900
     53 H2          -9.3420    -1.6110     0.3080 ha         1 P98       0.133000
@<TRIPOS>BOND
     1     1     4 ar  
     2     1     5 ar  
     3     1    30 1   
     4     2     3 ar  
     5     2     6 ar  
     6     2    53 1   
     7     3     8 ar  
     8     3    31 1   
     9     4    10 ar  
    10     4    32 1   
    11     5    11 ar  
    12     5    33 1   
    13     6    15 ar  
    14     6    34 1   
    15     7    13 ar  
    16     7    15 ar  
    17     7    35 1   
    18     8    16 ar  
    19     8    36 1   
    20     9    12 ar  
    21     9    17 ar  
    22     9    37 1   
    23    10    19 ar  
    24    10    38 1   
    25    11    19 ar  
    26    11    39 1   
    27    12    20 ar  
    28    12    40 1   
    29    13    21 ar  
    30    13    41 1   
    31    14    18 ar  
    32    14    20 ar  
    33    14    42 1   
    34    15    16 ar  
    35    16    27 ar  
    36    17    18 ar  
    37    17    28 1   
    38    18    29 1   
    39    19    29 1   
    40    20    52 1   
    41    21    25 1   
    42    21    27 ar  
    43    22    26 1   
    44    22    28 2   
    45    22    29 1   
    46    23    26 1   
    47    23    43 1   
    48    23    44 1   
    49    23    45 1   
    50    24    26 1   
    51    24    46 1   
    52    24    47 1   
    53    24    48 1   
    54    25    49 1   
    55    25    50 1   
    56    25    52 1   
    57    26    51 1   
@<TRIPOS>SUBSTRUCTURE
     1 P98         1 TEMP              0 ****  ****    0 ROOT
