@<TRIPOS>MOLECULE
P98
   53    57     1     0     0
SMALL
No Charge or Current Charge


@<TRIPOS>ATOM
      1 C25          4.1880    -3.8320     0.8710 ca         1 P98      -0.103000
      2 C15         -8.2300    -1.4870     0.6150 ca         1 P98      -0.106000
      3 C14         -8.0080    -0.4590     1.5440 ca         1 P98      -0.103000
      4 C24          3.8340    -3.4880    -0.4450 ca         1 P98      -0.105000
      5 C26          4.3050    -2.8320     1.8520 ca         1 P98      -0.105000
      6 C16         -7.2730    -1.7510    -0.3780 ca         1 P98      -0.091000
      7 C9          -5.1330    -1.2470    -1.4350 ca         1 P98      -0.067000
      8 C13         -6.8290     0.3060     1.4800 ca         1 P98      -0.082000
      9 C4           1.4700     3.0330    -0.4880 ca         1 P98      -0.014000
     10 C23          3.6000    -2.1430    -0.7810 ca         1 P98      -0.102500
     11 C27          4.0710    -1.4870     1.5160 ca         1 P98      -0.102500
     12 C1           0.1470     2.5330    -0.4980 ca         1 P98      -0.211000
     13 C10         -3.9720    -0.4620    -1.4630 ca         1 P98      -0.138000
     14 C3           0.9840     0.2450    -0.2480 ca         1 P98      -0.155000
     15 C11         -6.0920    -0.9850    -0.4410 ca         1 P98      -0.082000
     16 C12         -5.8570     0.0570     0.4930 ca         1 P98       0.277000
     17 C17          2.5290     2.1230    -0.3570 ca         1 P98       0.039400
     18 C18          2.2760     0.7850    -0.2440 ca         1 P98      -0.033200
     19 C22          3.7220    -1.1390     0.1980 ca         1 P98      -0.001200
     20 C2          -0.0980     1.1370    -0.3770 ca         1 P98       0.157100
     21 C7          -3.8030     0.5530    -0.5030 ca         1 P98       0.365300
     22 C20          4.4780     1.1820    -0.1700 cc         1 P98       0.433800
     23 C29          6.7420     1.5120    -1.2760 c3         1 P98      -0.083600
     24 C30          6.5430     1.4830     1.2730 c3         1 P98      -0.083600
     25 C6          -2.5490     1.4300    -0.5140 c3         1 P98       0.110300
     26 C28          5.9730     0.9440    -0.0590 c3         1 P98      -0.074000
     27 N8          -4.7310     0.8090     0.4550 nb         1 P98      -0.677000
     28 N21          3.9000     2.3980    -0.3170 nd         1 P98      -0.567100
     29 N19          3.4910     0.1910    -0.1410 na         1 P98      -0.103400
     30 H1           4.3680    -4.8730     1.1310 ha         1 P98       0.118000
     31 H3          -8.7490    -0.2520     2.3140 ha         1 P98       0.116000
     32 H4           3.7410    -4.2620    -1.2030 ha         1 P98       0.120000
     33 H5           4.5750    -3.0990     2.8720 ha         1 P98       0.120000
     34 H6          -7.4490    -2.5490    -1.0960 ha         1 P98       0.115000
     35 H7          -5.2830    -2.0390    -2.1660 ha         1 P98       0.119000
     36 H8          -6.6650     1.1000     2.2030 ha         1 P98       0.130000
     37 H9           1.6660     4.0990    -0.5780 ha         1 P98       0.129000
     38 H10          3.3260    -1.8800    -1.8000 ha         1 P98       0.129500
     39 H11          4.1570    -0.7180     2.2810 ha         1 P98       0.129500
     40 H12         -0.6700     3.2410    -0.5990 ha         1 P98       0.120000
     41 H13         -3.2070    -0.6340    -2.2150 ha         1 P98       0.140000
     42 H14          0.8180    -0.8250    -0.1550 ha         1 P98       0.135000
     43 H15          6.6460     2.6040    -1.3260 hc         1 P98       0.042200
     44 H16          7.8080     1.2640    -1.2120 hc         1 P98       0.042200
     45 H17          6.3500     1.0900    -2.2090 hc         1 P98       0.042200
     46 H18          6.0220     1.0340     2.1260 hc         1 P98       0.042200
     47 H19          7.6100     1.2460     1.3640 hc         1 P98       0.042200
     48 H20          6.4270     2.5720     1.3360 hc         1 P98       0.042200
     49 H21         -2.5250     1.9880    -1.4590 h1         1 P98       0.058200
     50 H22         -2.6030     2.1550     0.3080 h1         1 P98       0.058200
     51 H23          6.1550    -0.1370    -0.0640 hc         1 P98       0.056700
     52 O5          -1.3700     0.6060    -0.3830 os         1 P98      -0.354100
     53 H2          -9.1410    -2.0790     0.6630 ha         1 P98       0.115000
@<TRIPOS>BOND
     1     1     4 ar  
     2     1     5 ar  
     3     1    30 1   
     4     2     3 ar  
     5     2     6 ar  
     6     2    53 1   
     7     3     8 ar  
     8     3    31 1   
     9     4    10 ar  
    10     4    32 1   
    11     5    11 ar  
    12     5    33 1   
    13     6    15 ar  
    14     6    34 1   
    15     7    13 ar  
    16     7    15 ar  
    17     7    35 1   
    18     8    16 ar  
    19     8    36 1   
    20     9    12 ar  
    21     9    17 ar  
    22     9    37 1   
    23    10    19 ar  
    24    10    38 1   
    25    11    19 ar  
    26    11    39 1   
    27    12    20 ar  
    28    12    40 1   
    29    13    21 ar  
    30    13    41 1   
    31    14    18 ar  
    32    14    20 ar  
    33    14    42 1   
    34    15    16 ar  
    35    16    27 ar  
    36    17    18 ar  
    37    17    28 1   
    38    18    29 1   
    39    19    29 1   
    40    20    52 1   
    41    21    25 1   
    42    21    27 ar  
    43    22    26 1   
    44    22    28 2   
    45    22    29 1   
    46    23    26 1   
    47    23    43 1   
    48    23    44 1   
    49    23    45 1   
    50    24    26 1   
    51    24    46 1   
    52    24    47 1   
    53    24    48 1   
    54    25    49 1   
    55    25    50 1   
    56    25    52 1   
    57    26    51 1   
@<TRIPOS>SUBSTRUCTURE
     1 P98         1 TEMP              0 ****  ****    0 ROOT
