@<TRIPOS>MOLECULE
P99
   42    43     1     0     0
SMALL
No Charge or Current Charge


@<TRIPOS>ATOM
      1 N01          8.5830     1.0100    -0.5040 nt         1 P99      -0.617000
      2 C02          7.8000     0.1050     0.1310 c          1 P99       0.608100
      3 O03          8.3140    -0.8520     0.6920 o          1 P99      -0.562100
      4 C04          6.2790     0.3790     0.0860 c3         1 P99       0.065600
      5 O05          5.5200    -0.6340     0.7870 os         1 P99      -0.291100
      6 C06          4.1320    -0.6360     0.9050 ca         1 P99       0.001100
      7 C07          3.5460    -1.6990     1.6230 ca         1 P99       0.201500
      8 F08          4.3280    -2.6620     2.1650 f          1 P99      -0.157500
      9 C09          2.1560    -1.7840     1.7930 ca         1 P99      -0.171000
     10 C10          1.3100    -0.8060     1.2480 ca         1 P99      -0.041000
     11 S11         -0.4600    -0.9820     1.5060 ss         1 P99      -0.142000
     12 C12         -1.2360     0.4970     0.7120 c3         1 P99       0.034600
     13 C13         -2.7660     0.4580     0.8790 c3         1 P99       0.212800
     14 N14         -3.3830     1.6280     0.2230 n7         1 P99      -0.869300
     15 S15         -5.0350     1.8160     0.3560 sy         1 P99       1.150600
     16 O16         -5.2850     2.1550     1.7580 o          1 P99      -0.527500
     17 O17         -5.4080     2.7000    -0.7510 o          1 P99      -0.527500
     18 C18         -5.6190     0.1500    -0.0030 ca         1 P99      -0.312500
     19 C19         -6.0450    -0.6990     1.0400 ca         1 P99      -0.018000
     20 C20         -6.4870    -2.0010     0.7480 ca         1 P99      -0.128500
     21 C21         -6.5060    -2.4610    -0.5790 ca         1 P99      -0.054000
     22 C22         -6.0810    -1.6170    -1.6190 ca         1 P99      -0.128500
     23 C23         -5.6370    -0.3140    -1.3350 ca         1 P99      -0.018000
     24 C24          1.8770     0.2620     0.5270 ca         1 P99      -0.171000
     25 C25          3.2700     0.3520     0.3540 ca         1 P99       0.201500
     26 F26          3.7390     1.4070    -0.3510 f          1 P99      -0.157500
     27 HN01         8.1670     1.8040    -0.9700 hn         1 P99       0.316000
     28 HN0A         9.5840     0.8810    -0.5060 hn         1 P99       0.316000
     29 H04          6.1110     1.3670     0.5320 h1         1 P99       0.047700
     30 H04A         5.9860     0.4200    -0.9710 h1         1 P99       0.047700
     31 H09          1.7370    -2.6160     2.3520 ha         1 P99       0.144500
     32 H12         -0.8350     1.4060     1.1770 h1         1 P99       0.079200
     33 H12A        -0.9890     0.5020    -0.3570 h1         1 P99       0.079200
     34 H13         -3.1300    -0.4790     0.4350 h1         1 P99       0.065200
     35 H13A        -3.0070     0.4340     1.9520 h1         1 P99       0.065200
     36 HN14        -3.0660     2.4810     0.6800 hn         1 P99       0.480000
     37 H19         -6.0350    -0.3590     2.0750 ha         1 P99       0.135500
     38 H20         -6.8150    -2.6550     1.5530 ha         1 P99       0.121500
     39 H21         -6.8480    -3.4700    -0.8020 ha         1 P99       0.119000
     40 H22         -6.0930    -1.9730    -2.6470 ha         1 P99       0.121500
     41 H23         -5.3040     0.3290    -2.1490 ha         1 P99       0.135500
     42 H24          1.2580     1.0370     0.0890 ha         1 P99       0.144500
@<TRIPOS>BOND
     1     1     2 1   
     2     1    27 1   
     3     1    28 1   
     4     2     3 2   
     5     2     4 1   
     6     4     5 1   
     7     4    29 1   
     8     4    30 1   
     9     5     6 1   
    10     6     7 ar  
    11     6    25 ar  
    12     7     8 1   
    13     7     9 ar  
    14     9    10 ar  
    15     9    31 1   
    16    10    11 1   
    17    10    24 ar  
    18    11    12 1   
    19    12    13 1   
    20    12    32 1   
    21    12    33 1   
    22    13    14 1   
    23    13    34 1   
    24    13    35 1   
    25    14    15 1   
    26    14    36 1   
    27    15    16 2   
    28    15    17 2   
    29    15    18 1   
    30    18    19 ar  
    31    18    23 ar  
    32    19    20 ar  
    33    19    37 1   
    34    20    21 ar  
    35    20    38 1   
    36    21    22 ar  
    37    21    39 1   
    38    22    23 ar  
    39    22    40 1   
    40    23    41 1   
    41    24    25 ar  
    42    24    42 1   
    43    25    26 1   
@<TRIPOS>SUBSTRUCTURE
     1 P99         1 TEMP              0 ****  ****    0 ROOT
