@<TRIPOS>MOLECULE
P99
   42    43     1     0     0
SMALL
abcg2


@<TRIPOS>ATOM
      1 N01          8.3640     0.6850     1.8780 nt         1 P99      -0.617000
      2 C02          7.7090     0.4910     0.7260 c          1 P99       0.608100
      3 O03          8.2330     0.5090    -0.3730 o          1 P99      -0.562100
      4 C04          6.2210     0.2430     0.9110 c3         1 P99       0.065600
      5 O05          5.6490     0.0460    -0.3660 os         1 P99      -0.291100
      6 C06          4.3270    -0.2370    -0.3520 ca         1 P99       0.001100
      7 C07          3.8640    -1.5490    -0.3400 ca         1 P99       0.201500
      8 F08          4.7700    -2.5270    -0.2890 f          1 P99      -0.157500
      9 C09          2.5250    -1.8680    -0.3780 ca         1 P99      -0.171000
     10 C10          1.5850    -0.8380    -0.4270 ca         1 P99      -0.041000
     11 S11         -0.1000    -1.3250    -0.5060 ss         1 P99      -0.142000
     12 C12         -0.9960     0.2370    -0.3100 c3         1 P99       0.034600
     13 C13         -2.4860    -0.0790    -0.2840 c3         1 P99       0.212800
     14 N14         -3.2120     1.1720    -0.1100 n7         1 P99      -0.869300
     15 S15         -4.7690     1.2880    -0.6400 sy         1 P99       1.150600
     16 O16         -5.2070     2.6260    -0.2830 o          1 P99      -0.527500
     17 O17         -4.7760     0.8580    -2.0280 o          1 P99      -0.527500
     18 C18         -5.7150     0.1190     0.2980 ca         1 P99      -0.312500
     19 C19         -6.2630     0.5140     1.5120 ca         1 P99      -0.018000
     20 C20         -6.9650    -0.4150     2.2640 ca         1 P99      -0.128500
     21 C21         -7.1110    -1.7180     1.8060 ca         1 P99      -0.054000
     22 C22         -6.5580    -2.0990     0.5910 ca         1 P99      -0.128500
     23 C23         -5.8560    -1.1790    -0.1740 ca         1 P99      -0.018000
     24 C24          2.0060     0.4880    -0.4350 ca         1 P99      -0.171000
     25 C25          3.3610     0.7560    -0.3920 ca         1 P99       0.201500
     26 F26          3.7720     2.0270    -0.3990 f          1 P99      -0.157500
     27 HN01         7.9020     0.6550     2.7710 hn         1 P99       0.316000
     28 HN0A         9.3580     0.8470     1.8770 hn         1 P99       0.316000
     29 H04          6.0770    -0.6310     1.5550 h1         1 P99       0.047700
     30 H04A         5.7710     1.1010     1.4240 h1         1 P99       0.047700
     31 H09          2.2230    -2.9080    -0.3630 ha         1 P99       0.144500
     32 H12         -0.6890     0.7120     0.6230 h1         1 P99       0.079200
     33 H12A        -0.7820     0.9100    -1.1400 h1         1 P99       0.079200
     34 H13         -2.7770    -0.5270    -1.2330 h1         1 P99       0.065200
     35 H13A        -2.7130    -0.7930     0.5130 h1         1 P99       0.065200
     36 HN14        -3.0970     1.5880     0.8080 hn         1 P99       0.480000
     37 H19         -6.1550     1.5290     1.8690 ha         1 P99       0.135500
     38 H20         -7.4020    -0.1170     3.2080 ha         1 P99       0.121500
     39 H21         -7.6630    -2.4380     2.3960 ha         1 P99       0.119000
     40 H22         -6.6760    -3.1130     0.2340 ha         1 P99       0.121500
     41 H23         -5.4370    -1.4760    -1.1260 ha         1 P99       0.135500
     42 H24          1.3130     1.3160    -0.4810 ha         1 P99       0.144500
@<TRIPOS>BOND
     1     1     2 1   
     2     1    27 1   
     3     1    28 1   
     4     2     3 2   
     5     2     4 1   
     6     4     5 1   
     7     4    29 1   
     8     4    30 1   
     9     5     6 1   
    10     6     7 ar  
    11     6    25 ar  
    12     7     8 1   
    13     7     9 ar  
    14     9    10 ar  
    15     9    31 1   
    16    10    11 1   
    17    10    24 ar  
    18    11    12 1   
    19    12    13 1   
    20    12    32 1   
    21    12    33 1   
    22    13    14 1   
    23    13    34 1   
    24    13    35 1   
    25    14    15 1   
    26    14    36 1   
    27    15    16 2   
    28    15    17 2   
    29    15    18 1   
    30    18    19 ar  
    31    18    23 ar  
    32    19    20 ar  
    33    19    37 1   
    34    20    21 ar  
    35    20    38 1   
    36    21    22 ar  
    37    21    39 1   
    38    22    23 ar  
    39    22    40 1   
    40    23    41 1   
    41    24    25 ar  
    42    24    42 1   
    43    25    26 1   
@<TRIPOS>SUBSTRUCTURE
     1 P99         1 TEMP              0 ****  ****    0 ROOT
