@<TRIPOS>MOLECULE
P9A
   60    64     1     0     0
SMALL
No Charge or Current Charge


@<TRIPOS>ATOM
      1 O16          3.1120    -2.0890    -0.7750 os         1 P9A      -0.446000
      2 O19          2.3150     3.7390     0.8770 o          1 P9A      -0.508100
      3 O20         -1.8070     2.8030     0.6060 o          1 P9A      -0.574100
      4 O32         -5.0820    -2.9760    -2.2910 o          1 P9A      -0.695000
      5 O33         -7.1020    -2.5840    -1.6650 o          1 P9A      -0.695000
      6 N28         -2.2150     0.7070    -0.2790 ns         1 P9A      -0.146000
      7 C1          -1.3960     1.7630     0.1080 c          1 P9A       0.598100
      8 C2           0.0970     1.5460    -0.1800 c3         1 P9A      -0.160400
      9 C3           0.8960     1.2750     1.1270 c3         1 P9A      -0.059400
     10 C4           2.4760     1.2950     1.0320 c6         1 P9A      -0.127000
     11 C5           2.9810     2.7310     0.6700 c          1 P9A       0.572100
     12 C6           4.4040     2.8530     0.1080 c6         1 P9A      -0.181400
     13 C7           4.6830     1.8520    -1.0290 c6         1 P9A      -0.051400
     14 C8           4.4780     0.3790    -0.5910 c5         1 P9A      -0.054000
     15 C9           3.0090     0.2090    -0.0080 c6         1 P9A      -0.068700
     16 C10          2.8330    -1.2910     0.3950 c5         1 P9A       0.165300
     17 C11          3.9410    -1.8620     1.3240 c5         1 P9A      -0.104400
     18 C12          5.1770    -1.7160     0.3800 c5         1 P9A      -0.096700
     19 C13          5.5700    -0.1970     0.3610 c5         1 P9A      -0.068400
     20 C14          4.7680    -0.6250    -1.7830 c5         1 P9A      -0.095400
     21 C15          4.5370    -1.9740    -1.0360 c5         1 P9A       0.160000
     22 C17          5.0190    -3.2320    -1.7850 c3         1 P9A      -0.071100
     23 C18          2.9610     1.0700     2.5040 c3         1 P9A      -0.085100
     24 C22         -5.4350    -1.0870    -0.9380 ca         1 P9A      -0.304600
     25 C23         -4.0770    -0.7030    -0.9190 ca         1 P9A       0.260100
     26 C24         -3.6300     0.4430    -0.2220 ca         1 P9A      -0.275000
     27 C25         -4.5900     1.2100     0.4840 ca         1 P9A       0.187100
     28 C26         -5.9370     0.8330     0.4740 ca         1 P9A      -0.244000
     29 C27         -6.3640    -0.2990    -0.2290 ca         1 P9A       0.007000
     30 HO30        -3.3200     2.5330     1.0050 ho         1 P9A       0.460000
     31 HO31        -3.7170    -2.1880    -1.9950 ho         1 P9A       0.555000
     32 HN28        -1.7010    -0.0540    -0.7090 hn         1 P9A       0.134000
     33 H2           0.2090     0.6880    -0.8530 hc         1 P9A       0.052200
     34 H2A          0.4880     2.4490    -0.6620 hc         1 P9A       0.052200
     35 H3           0.5720     2.0150     1.8720 hc         1 P9A       0.067200
     36 H3A          0.5590     0.3100     1.5280 hc         1 P9A       0.067200
     37 H6           4.6050     3.8910    -0.1890 hc         1 P9A       0.062200
     38 H6A          5.0880     2.5910     0.9250 hc         1 P9A       0.062200
     39 H7           4.0250     2.0780    -1.8790 hc         1 P9A       0.044700
     40 H7A          5.7110     1.9900    -1.3940 hc         1 P9A       0.044700
     41 H9           2.3800     0.3370    -0.8970 hc         1 P9A       0.063700
     42 H10          1.8150    -1.4920     0.7550 h1         1 P9A       0.099700
     43 H11          4.0680    -1.3480     2.2800 hc         1 P9A       0.058700
     44 H11A         3.7440    -2.9140     1.5610 hc         1 P9A       0.058700
     45 H12          6.0100    -2.3790     0.6400 hc         1 P9A       0.064700
     46 H13          6.5790    -0.0550    -0.0450 hc         1 P9A       0.043700
     47 H13A         5.5910     0.2540     1.3560 hc         1 P9A       0.043700
     48 H14          4.0750    -0.4950    -2.6220 hc         1 P9A       0.053200
     49 H14A         5.7840    -0.5350    -2.1870 hc         1 P9A       0.053200
     50 H17          4.8160    -4.1380    -1.2030 hc         1 P9A       0.041700
     51 H17A         4.5150    -3.3310    -2.7540 hc         1 P9A       0.041700
     52 H17B         6.0980    -3.1880    -1.9710 hc         1 P9A       0.041700
     53 H18          2.5660     0.1410     2.9300 hc         1 P9A       0.040033
     54 H18A         4.0500     1.0590     2.5990 hc         1 P9A       0.040033
     55 H18B         2.6100     1.8770     3.1600 hc         1 P9A       0.040033
     56 H26         -6.6660     1.4260     1.0200 ha         1 P9A       0.107000
     57 H27         -7.4210    -0.5590    -0.2140 ha         1 P9A       0.121000
     58 C21         -5.9130    -2.3100    -1.6880 c          1 P9A       0.728600
     59 O31         -3.1670    -1.4550    -1.5930 oh         1 P9A      -0.634100
     60 O30         -4.2660     2.3120     1.2050 oh         1 P9A      -0.549100
@<TRIPOS>BOND
     1     1    16 1   
     2     1    21 1   
     3     2    11 2   
     4     3     7 2   
     5     4    58 1   
     6     5    58 1   
     7     6     7 1   
     8     6    26 1   
     9     6    32 1   
    10     7     8 1   
    11     8     9 1   
    12     8    33 1   
    13     8    34 1   
    14     9    10 1   
    15     9    35 1   
    16     9    36 1   
    17    10    11 1   
    18    10    15 1   
    19    10    23 1   
    20    11    12 1   
    21    12    13 1   
    22    12    37 1   
    23    12    38 1   
    24    13    14 1   
    25    13    39 1   
    26    13    40 1   
    27    14    15 1   
    28    14    19 1   
    29    14    20 1   
    30    15    16 1   
    31    15    41 1   
    32    16    17 1   
    33    16    42 1   
    34    17    18 1   
    35    17    43 1   
    36    17    44 1   
    37    18    19 1   
    38    18    21 1   
    39    18    45 1   
    40    19    46 1   
    41    19    47 1   
    42    20    21 1   
    43    20    48 1   
    44    20    49 1   
    45    21    22 1   
    46    22    50 1   
    47    22    51 1   
    48    22    52 1   
    49    23    53 1   
    50    23    54 1   
    51    23    55 1   
    52    24    25 ar  
    53    24    29 ar  
    54    24    58 1   
    55    25    26 ar  
    56    25    59 1   
    57    26    27 ar  
    58    27    28 ar  
    59    27    60 1   
    60    28    29 ar  
    61    28    56 1   
    62    29    57 1   
    63    30    60 1   
    64    31    59 1   
@<TRIPOS>SUBSTRUCTURE
     1 P9A         1 TEMP              0 ****  ****    0 ROOT
