@<TRIPOS>MOLECULE
P9A
   60    64     1     0     0
SMALL
bcc


@<TRIPOS>ATOM
      1 O16          3.1780    -1.7890    -1.3330 os         1 P9A      -0.399600
      2 O19          1.9520     3.2920     1.2880 o          1 P9A      -0.508100
      3 O20         -1.9080     1.4950     1.2120 o          1 P9A      -0.574100
      4 O32         -5.1660    -2.9260     0.9390 o          1 P9A      -0.800300
      5 O33         -7.2480    -2.2250     0.5900 o          1 P9A      -0.800300
      6 N28         -2.1230     0.6420    -0.8670 ns         1 P9A      -0.472100
      7 C1          -1.3900     1.0780     0.1940 c          1 P9A       0.665100
      8 C2           0.1080     1.0570    -0.0260 c3         1 P9A      -0.160400
      9 C3           0.8700     0.7520     1.2580 c3         1 P9A      -0.059400
     10 C4           2.4000     0.9300     1.2220 c6         1 P9A      -0.127000
     11 C5           2.7710     2.4100     1.1470 c          1 P9A       0.572100
     12 C6           4.2280     2.7140     0.9110 c6         1 P9A      -0.181400
     13 C7           4.6860     2.0660    -0.3940 c6         1 P9A      -0.051400
     14 C8           4.4790     0.5620    -0.3940 c5         1 P9A      -0.054000
     15 C9           3.0150     0.2020    -0.0080 c6         1 P9A      -0.068700
     16 C10          2.8430    -1.3340    -0.0300 c5         1 P9A       0.142100
     17 C11          3.8830    -2.0870     0.7960 c5         1 P9A      -0.104400
     18 C12          5.1330    -1.6850     0.0180 c5         1 P9A      -0.096700
     19 C13          5.4950    -0.2500     0.4230 c5         1 P9A      -0.068400
     20 C14          4.7480    -0.0700    -1.7660 c5         1 P9A      -0.095400
     21 C15          4.5860    -1.5550    -1.4490 c5         1 P9A       0.136800
     22 C17          5.1710    -2.5120    -2.4580 c3         1 P9A      -0.071100
     23 C18          2.9010     0.4720     2.6080 c3         1 P9A      -0.085100
     24 C22         -5.4540    -0.8450    -0.1090 ca         1 P9A      -0.304600
     25 C23         -4.0570    -0.6860    -0.1920 ca         1 P9A       0.260100
     26 C24         -3.5230     0.4680    -0.7780 ca         1 P9A      -0.182400
     27 C25         -4.3680     1.4600    -1.2710 ca         1 P9A       0.187100
     28 C26         -5.7530     1.3100    -1.1910 ca         1 P9A      -0.262000
     29 C27         -6.2680     0.1650    -0.6130 ca         1 P9A      -0.011000
     30 HO30        -2.9070     2.5200    -1.8450 ho         1 P9A       0.421000
     31 HO31        -3.8900    -2.3320     0.6380 ho         1 P9A       0.516000
     32 HN28        -1.6340     0.1750    -1.6160 hn         1 P9A       0.300500
     33 H2           0.3480     0.3370    -0.8110 hc         1 P9A       0.052200
     34 H2A          0.3840     2.0390    -0.4210 hc         1 P9A       0.052200
     35 H3           0.4760     1.3780     2.0600 hc         1 P9A       0.067200
     36 H3A          0.6550    -0.2770     1.5580 hc         1 P9A       0.067200
     37 H6           4.3730     3.7950     0.8880 hc         1 P9A       0.062200
     38 H6A          4.8190     2.3220     1.7450 hc         1 P9A       0.062200
     39 H7           4.1250     2.5060    -1.2250 hc         1 P9A       0.044700
     40 H7A          5.7390     2.2980    -0.5730 hc         1 P9A       0.044700
     41 H9           2.4220     0.5620    -0.8580 hc         1 P9A       0.063700
     42 H10          1.8110    -1.6290     0.1780 h1         1 P9A       0.099700
     43 H11          3.9410    -1.8210     1.8490 hc         1 P9A       0.058700
     44 H11A         3.6790    -3.1590     0.7360 hc         1 P9A       0.058700
     45 H12          5.9590    -2.3900     0.1110 hc         1 P9A       0.064700
     46 H13          6.5060     0.0190     0.1030 hc         1 P9A       0.043700
     47 H13A         5.4530    -0.1030     1.5020 hc         1 P9A       0.043700
     48 H14          4.0680     0.2600    -2.5550 hc         1 P9A       0.053200
     49 H14A         5.7690     0.1640    -2.0870 hc         1 P9A       0.053200
     50 H17          5.0180    -3.5500    -2.1560 hc         1 P9A       0.041700
     51 H17A         4.7230    -2.3730    -3.4440 hc         1 P9A       0.041700
     52 H17B         6.2440    -2.3440    -2.5540 hc         1 P9A       0.041700
     53 H18          2.5820    -0.5490     2.8110 hc         1 P9A       0.040033
     54 H18A         3.9810     0.5180     2.7270 hc         1 P9A       0.040033
     55 H18B         2.4570     1.1000     3.3830 hc         1 P9A       0.040033
     56 H26         -6.4040     2.0830    -1.5770 ha         1 P9A       0.125000
     57 H27         -7.3420     0.0440    -0.5490 ha         1 P9A       0.139000
     58 C21         -6.0250    -2.0820     0.5160 c          1 P9A       0.939200
     59 O31         -3.2360    -1.6110     0.2740 oh         1 P9A      -0.595100
     60 O30         -3.8730     2.5730    -1.8310 oh         1 P9A      -0.510100
@<TRIPOS>BOND
     1     1    16 1   
     2     1    21 1   
     3     2    11 2   
     4     3     7 2   
     5     4    58 1   
     6     5    58 1   
     7     6     7 1   
     8     6    26 1   
     9     6    32 1   
    10     7     8 1   
    11     8     9 1   
    12     8    33 1   
    13     8    34 1   
    14     9    10 1   
    15     9    35 1   
    16     9    36 1   
    17    10    11 1   
    18    10    15 1   
    19    10    23 1   
    20    11    12 1   
    21    12    13 1   
    22    12    37 1   
    23    12    38 1   
    24    13    14 1   
    25    13    39 1   
    26    13    40 1   
    27    14    15 1   
    28    14    19 1   
    29    14    20 1   
    30    15    16 1   
    31    15    41 1   
    32    16    17 1   
    33    16    42 1   
    34    17    18 1   
    35    17    43 1   
    36    17    44 1   
    37    18    19 1   
    38    18    21 1   
    39    18    45 1   
    40    19    46 1   
    41    19    47 1   
    42    20    21 1   
    43    20    48 1   
    44    20    49 1   
    45    21    22 1   
    46    22    50 1   
    47    22    51 1   
    48    22    52 1   
    49    23    53 1   
    50    23    54 1   
    51    23    55 1   
    52    24    25 ar  
    53    24    29 ar  
    54    24    58 1   
    55    25    26 ar  
    56    25    59 1   
    57    26    27 ar  
    58    27    28 ar  
    59    27    60 1   
    60    28    29 ar  
    61    28    56 1   
    62    29    57 1   
    63    30    60 1   
    64    31    59 1   
@<TRIPOS>SUBSTRUCTURE
     1 P9A         1 TEMP              0 ****  ****    0 ROOT
