@<TRIPOS>MOLECULE
P9B
   33    34     1     0     0
SMALL
No Charge or Current Charge


@<TRIPOS>ATOM
      1 C1          -4.8030     0.2990    -0.0610 ca         1 P9B      -0.310500
      2 N1          -6.8730     0.9740     1.4550 n8         1 P9B      -1.004100
      3 O1          -7.2780     0.7930    -0.9670 o          1 P9B      -0.545000
      4 S1          -6.5730     0.0960     0.1100 sy         1 P9B       1.133600
      5 C2          -3.9210    -0.6530     0.4870 ca         1 P9B       0.025500
      6 O2          -6.8850    -1.2740     0.5100 o          1 P9B      -0.545000
      7 C3          -2.5320    -0.4870     0.3480 ca         1 P9B      -0.180000
      8 C4          -2.0060     0.6300    -0.3370 ca         1 P9B       0.051000
      9 C5          -2.8970     1.5700    -0.8850 ca         1 P9B      -0.180000
     10 C6          -4.2870     1.4120    -0.7510 ca         1 P9B       0.025500
     11 N7          -0.6150     0.8590    -0.5190 ns         1 P9B      -0.153000
     12 C8           0.5080     0.2050    -0.0360 c          1 P9B       0.672100
     13 O8           0.4830    -0.7510     0.7300 o          1 P9B      -0.584100
     14 N9           1.6830     0.7840    -0.4920 ns         1 P9B      -0.175000
     15 C10          3.0420     0.3940    -0.3050 ca         1 P9B      -0.088000
     16 C11          3.4680    -0.9560    -0.3940 ca         1 P9B       0.169500
     17 F11          2.5920    -1.9350    -0.7200 f          1 P9B      -0.135500
     18 C12          4.8230    -1.2910    -0.2040 ca         1 P9B       0.107500
     19 F12          5.2200    -2.5830    -0.2970 f          1 P9B      -0.130000
     20 C13          5.7670    -0.2860     0.0670 ca         1 P9B       0.145000
     21 F13          7.0700    -0.6100     0.2480 f          1 P9B      -0.128000
     22 C14          5.3610     1.0580     0.1350 ca         1 P9B       0.107500
     23 F14          6.2730     2.0290     0.3840 f          1 P9B      -0.130000
     24 C15          4.0080     1.3940    -0.0570 ca         1 P9B       0.169500
     25 F15          3.6260     2.6920     0.0110 f          1 P9B      -0.135500
     26 HN1         -7.3800     0.2940     2.0180 hn         1 P9B       0.472500
     27 H2          -4.3020    -1.5240     1.0190 ha         1 P9B       0.139000
     28 H3          -1.8840    -1.2440     0.7770 ha         1 P9B       0.135000
     29 H5          -2.5130     2.4350    -1.4200 ha         1 P9B       0.135000
     30 H6          -4.9550     2.1570    -1.1820 ha         1 P9B       0.139000
     31 HN7         -0.4110     1.6460    -1.1210 hn         1 P9B       0.154000
     32 HN9          1.5590     1.6210    -1.0470 hn         1 P9B       0.170000
     33 HN1A        -5.9560     1.0160     1.8910 hn         1 P9B       0.472500
@<TRIPOS>BOND
     1     1     4 1   
     2     1     5 ar  
     3     1    10 ar  
     4     2     4 1   
     5     2    26 1   
     6     2    33 1   
     7     3     4 2   
     8     4     6 2   
     9     5     7 ar  
    10     5    27 1   
    11     7     8 ar  
    12     7    28 1   
    13     8     9 ar  
    14     8    11 1   
    15     9    10 ar  
    16     9    29 1   
    17    10    30 1   
    18    11    12 1   
    19    11    31 1   
    20    12    13 2   
    21    12    14 1   
    22    14    15 1   
    23    14    32 1   
    24    15    16 ar  
    25    15    24 ar  
    26    16    17 1   
    27    16    18 ar  
    28    18    19 1   
    29    18    20 ar  
    30    20    21 1   
    31    20    22 ar  
    32    22    23 1   
    33    22    24 ar  
    34    24    25 1   
@<TRIPOS>SUBSTRUCTURE
     1 P9B         1 TEMP              0 ****  ****    0 ROOT
