@<TRIPOS>MOLECULE
P9B
   33    34     1     0     0
SMALL
abcg2


@<TRIPOS>ATOM
      1 C1          -4.5960     0.1740     0.1030 ca         1 P9B      -0.310500
      2 N1          -6.6510     1.2130     1.3970 n8         1 P9B      -1.004100
      3 O1          -7.0780     0.1030    -0.7780 o          1 P9B      -0.545000
      4 S1          -6.3040    -0.0900     0.4410 sy         1 P9B       1.133600
      5 C2          -3.6310    -0.6500     0.6570 ca         1 P9B       0.025500
      6 O2          -6.4350    -1.3590     1.1450 o          1 P9B      -0.545000
      7 C3          -2.2880    -0.4450     0.3790 ca         1 P9B      -0.180000
      8 C4          -1.9040     0.6000    -0.4640 ca         1 P9B       0.051000
      9 C5          -2.8950     1.4210    -1.0220 ca         1 P9B      -0.180000
     10 C6          -4.2270     1.2140    -0.7450 ca         1 P9B       0.025500
     11 N7          -0.5960     0.8960    -0.8140 ns         1 P9B      -0.153000
     12 C8           0.5570     0.3400    -0.3330 c          1 P9B       0.672100
     13 O8           0.6100    -0.5660     0.4740 o          1 P9B      -0.584100
     14 N9           1.6840     0.9100    -0.8680 ns         1 P9B      -0.175000
     15 C10          2.9490     0.4720    -0.4770 ca         1 P9B      -0.088000
     16 C11          3.3980    -0.8010    -0.8000 ca         1 P9B       0.169500
     17 F11          2.6210    -1.6130    -1.5030 f          1 P9B      -0.135500
     18 C12          4.6500    -1.2400    -0.4140 ca         1 P9B       0.107500
     19 F12          5.0600    -2.4620    -0.7300 f          1 P9B      -0.130000
     20 C13          5.4880    -0.3910     0.2850 ca         1 P9B       0.145000
     21 F13          6.6950    -0.8010     0.6460 f          1 P9B      -0.128000
     22 C14          5.0680     0.8860     0.6050 ca         1 P9B       0.107500
     23 F14          5.8720     1.6970     1.2830 f          1 P9B      -0.130000
     24 C15          3.8040     1.3020     0.2350 ca         1 P9B       0.169500
     25 F15          3.4030     2.5230     0.5690 f          1 P9B      -0.135500
     26 HN1         -7.6510     1.3860     1.4380 hn         1 P9B       0.472500
     27 H2          -3.9060    -1.4670     1.3090 ha         1 P9B       0.139000
     28 H3          -1.5600    -1.1050     0.8190 ha         1 P9B       0.135000
     29 H5          -2.6120     2.2350    -1.6790 ha         1 P9B       0.135000
     30 H6          -4.9670     1.8660    -1.1890 ha         1 P9B       0.139000
     31 HN7         -0.4990     1.6430    -1.4850 hn         1 P9B       0.154000
     32 HN9          1.6250     1.7510    -1.4250 hn         1 P9B       0.170000
     33 HN1A        -6.2720     1.1230     2.3340 hn         1 P9B       0.472500
@<TRIPOS>BOND
     1     1     4 1   
     2     1     5 ar  
     3     1    10 ar  
     4     2     4 1   
     5     2    26 1   
     6     2    33 1   
     7     3     4 2   
     8     4     6 2   
     9     5     7 ar  
    10     5    27 1   
    11     7     8 ar  
    12     7    28 1   
    13     8     9 ar  
    14     8    11 1   
    15     9    10 ar  
    16     9    29 1   
    17    10    30 1   
    18    11    12 1   
    19    11    31 1   
    20    12    13 2   
    21    12    14 1   
    22    14    15 1   
    23    14    32 1   
    24    15    16 ar  
    25    15    24 ar  
    26    16    17 1   
    27    16    18 ar  
    28    18    19 1   
    29    18    20 ar  
    30    20    21 1   
    31    20    22 ar  
    32    22    23 1   
    33    22    24 ar  
    34    24    25 1   
@<TRIPOS>SUBSTRUCTURE
     1 P9B         1 TEMP              0 ****  ****    0 ROOT
