@<TRIPOS>MOLECULE
P9C
   70    75     1     0     0
SMALL
abcg2


@<TRIPOS>ATOM
      1 O16         63.0550    37.2910    43.8030 os         1 P9C      -0.460000
      2 O19         58.8650    36.5140    47.9840 o          1 P9C      -0.506100
      3 O20         56.8360    39.1790    45.1090 o          1 P9C      -0.572100
      4 O32         53.9000    36.3820    41.3690 o          1 P9C      -0.700000
      5 O33         52.6600    37.8490    40.2210 o          1 P9C      -0.700000
      6 N28         57.8930    39.0070    43.1060 ns         1 P9C      -0.150000
      7 C1          57.8370    38.8910    44.4640 c          1 P9C       0.595100
      8 C2          59.0920    38.3480    45.1100 c3         1 P9C      -0.165400
      9 C3          59.0260    36.8140    45.1580 c3         1 P9C      -0.066400
     10 C4          60.1380    36.1250    45.9810 c6         1 P9C      -0.131000
     11 C5          59.9620    36.5220    47.4580 c          1 P9C       0.566100
     12 C6          61.2020    36.8990    48.2250 c6         1 P9C      -0.174400
     13 C7          62.3730    35.9620    47.8890 c6         1 P9C       0.007600
     14 C8          62.7460    36.0360    46.3820 c5         1 P9C      -0.044000
     15 C9          61.5460    36.5830    45.5340 c6         1 P9C      -0.070700
     16 C10         61.8810    36.4870    44.0260 c5         1 P9C       0.165300
     17 C11         62.3940    35.1240    43.5730 c5         1 P9C      -0.098400
     18 C12         63.6780    35.0600    44.4090 c5         1 P9C      -0.092700
     19 C13         63.2770    34.6930    45.8410 c5         1 P9C      -0.073400
     20 C14         63.9510    36.9170    45.9940 c5         1 P9C      -0.090400
     21 C15         64.1080    36.5770    44.5050 c5         1 P9C       0.154000
     22 C17         65.4360    36.9390    43.8890 c3         1 P9C      -0.071100
     23 C18         59.8720    34.6070    45.9040 c3         1 P9C      -0.080100
     24 C22         54.6760    38.6150    41.2290 ca         1 P9C      -0.286600
     25 C23         55.8110    38.3000    42.0070 ca         1 P9C       0.251100
     26 C24         56.7480    39.2980    42.3130 ca         1 P9C      -0.257000
     27 C25         56.5540    40.6000    41.8510 ca         1 P9C       0.175100
     28 C26         55.4390    40.9220    41.0770 ca         1 P9C      -0.232000
     29 C27         54.5220    39.9280    40.7820 ca         1 P9C       0.001000
     30 C34         63.9980    37.4270    49.1900 ca         1 P9C      -0.106000
     31 C35         64.2620    35.0470    49.2740 ca         1 P9C      -0.106000
     32 C36         65.1150    37.5800    50.0020 ca         1 P9C      -0.111500
     33 C37         65.8160    36.4640    50.4510 ca         1 P9C      -0.115000
     34 C38         65.3830    35.1940    50.0840 ca         1 P9C      -0.111500
     35 C39         63.5570    36.1580    48.8090 ca         1 P9C      -0.068300
     36 HO30        58.1570    41.2050    42.6850 ho         1 P9C       0.457000
     37 HO31        55.1810    36.5490    42.0990 ho         1 P9C       0.553000
     38 HN28        58.7240    38.6670    42.6420 hn         1 P9C       0.133000
     39 H2          59.9700    38.6860    44.5590 hc         1 P9C       0.053700
     40 H2A         59.1420    38.7600    46.1180 hc         1 P9C       0.053700
     41 H3          58.0720    36.5190    45.5940 hc         1 P9C       0.072700
     42 H3A         59.0470    36.4160    44.1420 hc         1 P9C       0.072700
     43 H6          61.4490    37.9320    47.9590 hc         1 P9C       0.070700
     44 H6A         60.9710    36.8810    49.2900 hc         1 P9C       0.070700
     45 H7          62.0170    34.9450    48.0690 hc         1 P9C       0.055700
     46 H9          61.5500    37.6600    45.7170 hc         1 P9C       0.058700
     47 H10         61.0850    36.8960    43.4080 h1         1 P9C       0.090700
     48 H11         61.7280    34.2870    43.7720 hc         1 P9C       0.060200
     49 H11A        62.5960    35.1640    42.5020 hc         1 P9C       0.060200
     50 H12         64.4510    34.4230    43.9840 hc         1 P9C       0.066700
     51 H13         64.1410    34.3930    46.4380 hc         1 P9C       0.047700
     52 H13A        62.5540    33.8800    45.8750 hc         1 P9C       0.047700
     53 H14         63.7990    37.9860    46.1430 hc         1 P9C       0.057200
     54 H14A        64.8360    36.6100    46.5530 hc         1 P9C       0.057200
     55 H17         65.4590    36.6600    42.8340 hc         1 P9C       0.042700
     56 H17A        65.6170    38.0140    43.9690 hc         1 P9C       0.042700
     57 H17B        66.2430    36.4170    44.4040 hc         1 P9C       0.042700
     58 H18         59.9380    34.2630    44.8740 hc         1 P9C       0.043367
     59 H18A        60.5690    34.0300    46.5070 hc         1 P9C       0.043367
     60 H18B        58.8640    34.4030    46.2660 hc         1 P9C       0.043367
     61 H26         55.3080    41.9370    40.7270 ha         1 P9C       0.109000
     62 H27         53.6500    40.1610    40.1860 ha         1 P9C       0.126000
     63 H34         63.4720    38.3080    48.8460 ha         1 P9C       0.113000
     64 H35         63.9260    34.0540    48.9980 ha         1 P9C       0.113000
     65 H36         65.4410    38.5740    50.2850 ha         1 P9C       0.110000
     66 H37         66.6860    36.5830    51.0840 ha         1 P9C       0.109000
     67 H38         65.9150    34.3170    50.4320 ha         1 P9C       0.110000
     68 C21         53.6590    37.5560    40.9030 c          1 P9C       0.721600
     69 O31         56.0080    37.0570    42.4630 oh         1 P9C      -0.630100
     70 O30         57.4440    41.5820    42.1460 oh         1 P9C      -0.554100
@<TRIPOS>BOND
     1     1    16 1   
     2     1    21 1   
     3     2    11 2   
     4     3     7 2   
     5     4    68 1   
     6     5    68 1   
     7     6     7 1   
     8     6    26 1   
     9     6    38 1   
    10     7     8 1   
    11     8     9 1   
    12     8    39 1   
    13     8    40 1   
    14     9    10 1   
    15     9    41 1   
    16     9    42 1   
    17    10    11 1   
    18    10    15 1   
    19    10    23 1   
    20    11    12 1   
    21    12    13 1   
    22    12    43 1   
    23    12    44 1   
    24    13    14 1   
    25    13    35 1   
    26    13    45 1   
    27    14    15 1   
    28    14    19 1   
    29    14    20 1   
    30    15    16 1   
    31    15    46 1   
    32    16    17 1   
    33    16    47 1   
    34    17    18 1   
    35    17    48 1   
    36    17    49 1   
    37    18    19 1   
    38    18    21 1   
    39    18    50 1   
    40    19    51 1   
    41    19    52 1   
    42    20    21 1   
    43    20    53 1   
    44    20    54 1   
    45    21    22 1   
    46    22    55 1   
    47    22    56 1   
    48    22    57 1   
    49    23    58 1   
    50    23    59 1   
    51    23    60 1   
    52    24    25 ar  
    53    24    29 ar  
    54    24    68 1   
    55    25    26 ar  
    56    25    69 1   
    57    26    27 ar  
    58    27    28 ar  
    59    27    70 1   
    60    28    29 ar  
    61    28    61 1   
    62    29    62 1   
    63    30    32 ar  
    64    30    35 ar  
    65    30    63 1   
    66    31    34 ar  
    67    31    35 ar  
    68    31    64 1   
    69    32    33 ar  
    70    32    65 1   
    71    33    34 ar  
    72    33    66 1   
    73    34    67 1   
    74    36    70 1   
    75    37    69 1   
@<TRIPOS>SUBSTRUCTURE
     1 P9C         1 TEMP              0 ****  ****    0 ROOT
