@<TRIPOS>MOLECULE
P9C
   70    75     1     0     0
SMALL
No Charge or Current Charge


@<TRIPOS>ATOM
      1 O16         62.9220    37.1300    43.7810 os         1 P9C      -0.460000
      2 O19         58.9210    36.1180    48.2590 o          1 P9C      -0.506100
      3 O20         56.3680    38.4050    45.1890 o          1 P9C      -0.572100
      4 O32         53.6470    36.8180    40.9210 o          1 P9C      -0.700000
      5 O33         52.8230    38.3600    39.6690 o          1 P9C      -0.700000
      6 N28         57.6210    39.0520    43.3610 ns         1 P9C      -0.150000
      7 C1          57.4540    38.4890    44.6230 c          1 P9C       0.595100
      8 C2          58.7570    38.0390    45.3000 c3         1 P9C      -0.165400
      9 C3          58.8730    36.4890    45.3310 c3         1 P9C      -0.066400
     10 C4          60.0950    35.8820    46.1220 c6         1 P9C      -0.131000
     11 C5          59.9600    36.2780    47.6300 c          1 P9C       0.566100
     12 C6          61.2230    36.8140    48.3280 c6         1 P9C      -0.174400
     13 C7          62.4680    35.9710    47.9400 c6         1 P9C       0.007600
     14 C8          62.7850    35.9990    46.3930 c5         1 P9C      -0.044000
     15 C9          61.4800    36.4150    45.5710 c6         1 P9C      -0.070700
     16 C10         61.7900    36.2770    44.0500 c5         1 P9C       0.165300
     17 C11         62.4010    34.9250    43.6150 c5         1 P9C      -0.098400
     18 C12         63.7470    34.9840    44.4090 c5         1 P9C      -0.092700
     19 C13         63.4020    34.6490    45.8960 c5         1 P9C      -0.073400
     20 C14         64.0280    36.8890    45.9510 c5         1 P9C      -0.090400
     21 C15         64.0720    36.5230    44.4280 c5         1 P9C       0.154000
     22 C17         65.3540    36.9570    43.6890 c3         1 P9C      -0.071100
     23 C18         59.9230    34.3280    46.0510 c3         1 P9C      -0.080100
     24 C22         54.6940    38.9220    40.9860 ca         1 P9C      -0.286600
     25 C23         55.6620    38.5360    41.9420 ca         1 P9C       0.251100
     26 C24         56.6410    39.4480    42.4000 ca         1 P9C      -0.257000
     27 C25         56.6610    40.7500    41.8700 ca         1 P9C       0.175100
     28 C26         55.7110    41.1430    40.9240 ca         1 P9C      -0.232000
     29 C27         54.7290    40.2430    40.4860 ca         1 P9C       0.001000
     30 C34         64.0460    37.6200    49.1380 ca         1 P9C      -0.106000
     31 C35         64.5020    35.2370    49.2940 ca         1 P9C      -0.106000
     32 C36         65.1770    37.8870    49.9290 ca         1 P9C      -0.111500
     33 C37         65.9700    36.8300    50.4040 ca         1 P9C      -0.115000
     34 C38         65.6320    35.5050    50.0850 ca         1 P9C      -0.111500
     35 C39         63.6970    36.2900    48.8130 ca         1 P9C      -0.068300
     36 HO30        58.1090    41.2420    43.0020 ho         1 P9C       0.457000
     37 HO31        54.9020    36.8310    41.9210 ho         1 P9C       0.553000
     38 HN28        58.5810    39.1060    43.0410 hn         1 P9C       0.133000
     39 H2          59.6100    38.4490    44.7470 hc         1 P9C       0.053700
     40 H2A         58.7610    38.4180    46.3280 hc         1 P9C       0.053700
     41 H3          57.9380    36.0970    45.7550 hc         1 P9C       0.072700
     42 H3A         58.8800    36.1260    44.2950 hc         1 P9C       0.072700
     43 H6          61.3870    37.8350    47.9620 hc         1 P9C       0.070700
     44 H6A         61.0600    36.8520    49.4130 hc         1 P9C       0.070700
     45 H7          62.1850    34.9360    48.1820 hc         1 P9C       0.055700
     46 H9          61.4180    37.5030    45.7070 hc         1 P9C       0.058700
     47 H10         60.9350    36.5880    43.4340 h1         1 P9C       0.090700
     48 H11         61.7910    34.0490    43.8480 hc         1 P9C       0.060200
     49 H11A        62.5770    34.9080    42.5340 hc         1 P9C       0.060200
     50 H12         64.5340    34.3470    43.9900 hc         1 P9C       0.066700
     51 H13         64.3060    34.3830    46.4570 hc         1 P9C       0.047700
     52 H13A        62.7380    33.7870    45.9890 hc         1 P9C       0.047700
     53 H14         63.8600    37.9590    46.1140 hc         1 P9C       0.057200
     54 H14A        64.9630    36.6250    46.4600 hc         1 P9C       0.057200
     55 H17         65.3120    36.6760    42.6300 hc         1 P9C       0.042700
     56 H17A        65.4930    38.0430    43.7480 hc         1 P9C       0.042700
     57 H17B        66.2380    36.4800    44.1270 hc         1 P9C       0.042700
     58 H18         59.9660    33.9530    45.0240 hc         1 P9C       0.043367
     59 H18A        60.6700    33.7990    46.6490 hc         1 P9C       0.043367
     60 H18B        58.9480    34.0210    46.4470 hc         1 P9C       0.043367
     61 H26         55.7290    42.1550    40.5270 ha         1 P9C       0.109000
     62 H27         54.0020    40.5790    39.7480 ha         1 P9C       0.126000
     63 H34         63.4520    38.4530    48.7710 ha         1 P9C       0.113000
     64 H35         64.2550    34.2050    49.0530 ha         1 P9C       0.113000
     65 H36         65.4390    38.9140    50.1720 ha         1 P9C       0.110000
     66 H37         66.8450    37.0380    51.0160 ha         1 P9C       0.109000
     67 H38         66.2470    34.6850    50.4510 ha         1 P9C       0.110000
     68 C21         53.6390    37.9610    40.4850 c          1 P9C       0.721600
     69 O31         55.6790    37.2540    42.3900 oh         1 P9C      -0.630100
     70 O30         57.5900    41.6550    42.2830 oh         1 P9C      -0.554100
@<TRIPOS>BOND
     1     1    16 1   
     2     1    21 1   
     3     2    11 2   
     4     3     7 2   
     5     4    68 1   
     6     5    68 1   
     7     6     7 1   
     8     6    26 1   
     9     6    38 1   
    10     7     8 1   
    11     8     9 1   
    12     8    39 1   
    13     8    40 1   
    14     9    10 1   
    15     9    41 1   
    16     9    42 1   
    17    10    11 1   
    18    10    15 1   
    19    10    23 1   
    20    11    12 1   
    21    12    13 1   
    22    12    43 1   
    23    12    44 1   
    24    13    14 1   
    25    13    35 1   
    26    13    45 1   
    27    14    15 1   
    28    14    19 1   
    29    14    20 1   
    30    15    16 1   
    31    15    46 1   
    32    16    17 1   
    33    16    47 1   
    34    17    18 1   
    35    17    48 1   
    36    17    49 1   
    37    18    19 1   
    38    18    21 1   
    39    18    50 1   
    40    19    51 1   
    41    19    52 1   
    42    20    21 1   
    43    20    53 1   
    44    20    54 1   
    45    21    22 1   
    46    22    55 1   
    47    22    56 1   
    48    22    57 1   
    49    23    58 1   
    50    23    59 1   
    51    23    60 1   
    52    24    25 ar  
    53    24    29 ar  
    54    24    68 1   
    55    25    26 ar  
    56    25    69 1   
    57    26    27 ar  
    58    27    28 ar  
    59    27    70 1   
    60    28    29 ar  
    61    28    61 1   
    62    29    62 1   
    63    30    32 ar  
    64    30    35 ar  
    65    30    63 1   
    66    31    34 ar  
    67    31    35 ar  
    68    31    64 1   
    69    32    33 ar  
    70    32    65 1   
    71    33    34 ar  
    72    33    66 1   
    73    34    67 1   
    74    36    70 1   
    75    37    69 1   
@<TRIPOS>SUBSTRUCTURE
     1 P9C         1 TEMP              0 ****  ****    0 ROOT
