@<TRIPOS>MOLECULE
P9E
   20    21     1     0     0
SMALL
No Charge or Current Charge


@<TRIPOS>ATOM
      1 C1          -5.5400     2.4500    16.1610 ca         1 P9E      -0.263500
      2 C2          -4.1810     2.7870    15.9320 ca         1 P9E       0.012000
      3 C3          -3.9390     3.9980    15.2770 ca         1 P9E      -0.050400
      4 C4          -4.9400     4.8370    14.8620 ca         1 P9E       0.091100
      5 C5          -6.2880     4.5350    15.0680 ca         1 P9E      -0.095000
      6 C6          -6.5850     3.3200    15.7290 ca         1 P9E      -0.015000
      7 C7          -3.0100     5.8540    14.2510 cs         1 P9E       0.489500
      8 N1          -2.7850     4.6620    14.8810 ns         1 P9E      -0.441600
      9 S1          -1.8850     6.9260    13.6380 s          1 P9E      -0.456400
     10 O1          -4.3810     5.9390    14.2530 os         1 P9E      -0.219200
     11 S2          -5.9420     0.9120    16.9960 sy         1 P9E       1.127600
     12 O2          -7.2860     0.9630    17.5660 o          1 P9E      -0.536500
     13 O3          -4.7930     0.4100    17.7460 o          1 P9E      -0.536500
     14 N2          -6.0890    -0.1470    15.7640 n8         1 P9E      -1.003100
     15 H1          -3.3620     2.1420    16.2470 ha         1 P9E       0.154000
     16 H2          -7.0730     5.2080    14.7330 ha         1 P9E       0.150000
     17 H3          -7.6270     3.0540    15.9020 ha         1 P9E       0.148000
     18 H4          -1.8450     4.3050    15.0400 hn         1 P9E       0.492000
     19 H5          -5.4710    -0.8890    16.0850 hn         1 P9E       0.476000
     20 H6          -7.0080    -0.5350    15.9640 hn         1 P9E       0.476000
@<TRIPOS>BOND
     1     1     2 ar  
     2     1     6 ar  
     3     1    11 1   
     4     2     3 ar  
     5     2    15 1   
     6     3     4 ar  
     7     3     8 1   
     8     4     5 ar  
     9     4    10 1   
    10     5     6 ar  
    11     5    16 1   
    12     6    17 1   
    13     7     8 1   
    14     7     9 2   
    15     7    10 1   
    16     8    18 1   
    17    11    12 2   
    18    11    13 2   
    19    11    14 1   
    20    14    19 1   
    21    14    20 1   
@<TRIPOS>SUBSTRUCTURE
     1 P9E         1 TEMP              0 ****  ****    0 ROOT
