@<TRIPOS>MOLECULE
P9E
   20    21     1     0     0
SMALL
abcg2


@<TRIPOS>ATOM
      1 C1          -5.5420     2.4750    16.1930 ca         1 P9E      -0.263500
      2 C2          -4.1990     2.7470    15.9390 ca         1 P9E       0.012000
      3 C3          -3.9490     3.9290    15.2790 ca         1 P9E      -0.050400
      4 C4          -4.9780     4.7820    14.9010 ca         1 P9E       0.091100
      5 C5          -6.3020     4.5190    15.1500 ca         1 P9E      -0.095000
      6 C6          -6.5750     3.3280    15.8180 ca         1 P9E      -0.015000
      7 C7          -3.0910     5.7180    14.2530 cs         1 P9E       0.489500
      8 N1          -2.7970     4.5530    14.8560 ns         1 P9E      -0.441600
      9 S1          -2.0860     6.8220    13.5810 s          1 P9E      -0.456400
     10 O1          -4.4360     5.8600    14.2790 os         1 P9E      -0.219200
     11 S2          -5.9310     0.9710    17.0450 sy         1 P9E       1.127600
     12 O2          -7.2920     1.0830    17.5500 o          1 P9E      -0.536500
     13 O3          -4.8650     0.6610    17.9860 o          1 P9E      -0.536500
     14 N2          -5.7870    -0.1270    15.8210 n8         1 P9E      -1.003100
     15 H1          -3.4030     2.0800    16.2380 ha         1 P9E       0.154000
     16 H2          -7.0920     5.1940    14.8540 ha         1 P9E       0.150000
     17 H3          -7.6010     3.0760    16.0430 ha         1 P9E       0.148000
     18 H4          -1.8540     4.2120    14.9700 hn         1 P9E       0.492000
     19 H5          -5.6910    -1.0730    16.1800 hn         1 P9E       0.476000
     20 H6          -6.5580    -0.0800    15.1620 hn         1 P9E       0.476000
@<TRIPOS>BOND
     1     1     2 ar  
     2     1     6 ar  
     3     1    11 1   
     4     2     3 ar  
     5     2    15 1   
     6     3     4 ar  
     7     3     8 1   
     8     4     5 ar  
     9     4    10 1   
    10     5     6 ar  
    11     5    16 1   
    12     6    17 1   
    13     7     8 1   
    14     7     9 2   
    15     7    10 1   
    16     8    18 1   
    17    11    12 2   
    18    11    13 2   
    19    11    14 1   
    20    14    19 1   
    21    14    20 1   
@<TRIPOS>SUBSTRUCTURE
     1 P9E         1 TEMP              0 ****  ****    0 ROOT
