@<TRIPOS>MOLECULE
P9H
   53    53     1     0     0
SMALL
abcg2


@<TRIPOS>ATOM
      1 N1          28.3420     5.1570    13.1230 n8         1 P9H      -0.971200
      2 C4          33.9820     6.8970    15.2030 ca         1 P9H      -0.089500
      3 C5          34.4530     5.6200    14.9280 ca         1 P9H      -0.116000
      4 C6          35.7320     5.4440    14.4180 ca         1 P9H      -0.115000
      5 C7          36.5350     6.5530    14.1800 ca         1 P9H      -0.116000
      6 C8          36.0650     7.8280    14.4590 ca         1 P9H      -0.089500
      7 C10         31.7570    11.5080    14.7420 c3         1 P9H       0.025700
      8 C13         29.4790     7.2310    13.6270 c3         1 P9H      -0.040400
      9 C15         29.0290     6.6040    11.2220 c          1 P9H       0.714000
     10 N           30.9020    10.6490    13.9750 ns         1 P9H      -0.490900
     11 O           35.0140     9.9700    18.5700 o          1 P9H      -0.507100
     12 C1          35.1690    10.2260    16.1890 c3         1 P9H      -0.196400
     13 C11         30.4760     9.4380    14.3880 c          1 P9H       0.612100
     14 C12         29.5680     8.7330    13.4040 c3         1 P9H      -0.150400
     15 C14         28.5000     6.5360    12.6760 c3         1 P9H       0.017500
     16 C16         31.0990    12.8800    14.9060 c          1 P9H       0.574100
     17 C18         31.1040    15.0320    17.9570 c          1 P9H       0.713000
     18 C2          34.2570     9.3910    15.2820 c3         1 P9H       0.127600
     19 C3          34.7860     8.0120    14.9810 ca         1 P9H      -0.070300
     20 C9          33.1230    11.7130    14.0760 c3         1 P9H       0.042600
     21 N2          31.2430    13.4290    16.1080 ns         1 P9H      -0.459900
     22 O1          28.6020     7.5510    10.5280 o          1 P9H      -0.729500
     23 O2          29.8560     5.7390    10.8740 o          1 P9H      -0.729500
     24 O3          30.7750     8.9640    15.4760 o          1 P9H      -0.649100
     25 O4          30.5240    13.4140    13.9650 o          1 P9H      -0.657100
     26 O5          30.7370    16.1430    18.3720 o          1 P9H      -0.729500
     27 O6          31.7030    14.1360    18.5820 o          1 P9H      -0.729500
     28 S           33.9920    10.1840    13.6570 ss         1 P9H      -0.424000
     29 H1          27.8590     5.1560    14.0130 hn         1 P9H       0.360500
     30 H2          27.7370     4.6560    12.4840 hn         1 P9H       0.360500
     31 H4          32.9800     7.0300    15.5930 ha         1 P9H       0.126500
     32 H5          33.8180     4.7630    15.1120 ha         1 P9H       0.106500
     33 H6          36.1010     4.4500    14.2040 ha         1 P9H       0.099000
     34 H7          37.5310     6.4250    13.7770 ha         1 P9H       0.106500
     35 H8          36.7040     8.6810    14.2640 ha         1 P9H       0.126500
     36 H9          31.8960    11.0490    15.7210 h1         1 P9H       0.088700
     37 H10         29.1590     7.0410    14.6550 hc         1 P9H       0.038700
     38 H11         30.4640     6.7700    13.5190 hc         1 P9H       0.038700
     39 H12         31.2110    15.5100    15.8450 h1         1 P9H       0.033200
     40 H13         29.6810    14.8080    16.3390 h1         1 P9H       0.033200
     41 H14         30.6200    10.9780    13.0640 hn         1 P9H       0.332500
     42 H15         35.9280     8.5790    17.4500 h4         1 P9H      -0.022800
     43 H16         36.1420    10.3680    15.7090 hc         1 P9H       0.070700
     44 H17         34.7320    11.2090    16.3680 hc         1 P9H       0.070700
     45 H18         29.8890     8.9580    12.3860 hc         1 P9H       0.071200
     46 H19         28.5720     9.1780    13.5030 hc         1 P9H       0.071200
     47 H20         27.5530     7.0970    12.7060 h1         1 P9H      -0.002300
     48 H21         33.2810     9.2890    15.7600 h1         1 P9H       0.110700
     49 H22         33.7460    12.3540    14.7010 h1         1 P9H       0.076200
     50 H23         32.9990    12.2250    13.1180 h1         1 P9H       0.076200
     51 H24         31.7110    12.9370    16.8570 hn         1 P9H       0.345500
     52 C           35.3870     9.5400    17.5080 c          1 P9H       0.571900
     53 C17         30.7650    14.7370    16.4780 c3         1 P9H      -0.059000
@<TRIPOS>BOND
     1     1    15 1   
     2     1    29 1   
     3     1    30 1   
     4     2     3 ar  
     5     2    19 ar  
     6     2    31 1   
     7     3     4 ar  
     8     3    32 1   
     9     4     5 ar  
    10     4    33 1   
    11     5     6 ar  
    12     5    34 1   
    13     6    19 ar  
    14     6    35 1   
    15     7    10 1   
    16     7    16 1   
    17     7    20 1   
    18     7    36 1   
    19     8    14 1   
    20     8    15 1   
    21     8    37 1   
    22     8    38 1   
    23     9    15 1   
    24     9    22 1   
    25     9    23 1   
    26    10    13 1   
    27    10    41 1   
    28    11    52 2   
    29    12    18 1   
    30    12    43 1   
    31    12    44 1   
    32    12    52 1   
    33    13    14 1   
    34    13    24 2   
    35    14    45 1   
    36    14    46 1   
    37    15    47 1   
    38    16    21 1   
    39    16    25 2   
    40    17    26 1   
    41    17    27 1   
    42    17    53 1   
    43    18    19 1   
    44    18    28 1   
    45    18    48 1   
    46    20    28 1   
    47    20    49 1   
    48    20    50 1   
    49    21    51 1   
    50    21    53 1   
    51    39    53 1   
    52    40    53 1   
    53    42    52 1   
@<TRIPOS>SUBSTRUCTURE
     1 P9H         1 TEMP              0 ****  ****    0 ROOT
