@<TRIPOS>MOLECULE
P9H
   53    53     1     0     0
SMALL
No Charge or Current Charge


@<TRIPOS>ATOM
      1 N1          30.3310     5.2230    11.8380 n8         1 P9H      -0.971200
      2 C4          33.4490     6.8840    15.8170 ca         1 P9H      -0.089500
      3 C5          33.6870     5.5100    15.6400 ca         1 P9H      -0.116000
      4 C6          34.7500     5.0780    14.8300 ca         1 P9H      -0.115000
      5 C7          35.5740     6.0220    14.1950 ca         1 P9H      -0.116000
      6 C8          35.3360     7.3960    14.3700 ca         1 P9H      -0.089500
      7 C10         31.4990    11.5470    14.9880 c3         1 P9H       0.025700
      8 C13         30.2870     7.3690    13.1310 c3         1 P9H      -0.040400
      9 C15         28.7580     7.1600    11.0160 c          1 P9H       0.714000
     10 N           30.6160    10.5940    14.2700 ns         1 P9H      -0.490900
     11 O           34.8820     9.6660    18.4470 o          1 P9H      -0.507100
     12 C1          35.1870    10.0520    16.0740 c3         1 P9H      -0.196400
     13 C11         30.2640     9.3450    14.7290 c          1 P9H       0.612100
     14 C12         29.4350     8.5030    13.7570 c3         1 P9H      -0.150400
     15 C14         29.4790     6.4050    12.2170 c3         1 P9H       0.017500
     16 C16         30.7940    12.9220    15.1730 c          1 P9H       0.574100
     17 C18         31.7210    15.7750    17.5830 c          1 P9H       0.713000
     18 C2          34.0060     9.3310    15.3900 c3         1 P9H       0.127600
     19 C3          34.2720     7.8390    15.1850 ca         1 P9H      -0.070300
     20 C9          32.8490    11.7280    14.2420 c3         1 P9H       0.042600
     21 N2          31.3890    13.7660    16.0880 ns         1 P9H      -0.459900
     22 O1          27.5850     6.8890    10.7890 o          1 P9H      -0.729500
     23 O2          29.3980     7.9560    10.3390 o          1 P9H      -0.729500
     24 O3          30.5590     8.9520    15.8480 o          1 P9H      -0.649100
     25 O4          29.7830    13.2500    14.5610 o          1 P9H      -0.657100
     26 O5          31.1870    16.6670    18.2260 o          1 P9H      -0.729500
     27 O6          32.8390    15.3410    17.8310 o          1 P9H      -0.729500
     28 S           33.6470    10.1190    13.7490 ss         1 P9H      -0.424000
     29 H1          30.6590     4.7540    12.6890 hn         1 P9H       0.360500
     30 H2          29.7430     4.5200    11.3750 hn         1 P9H       0.360500
     31 H4          32.6220     7.2040    16.4470 ha         1 P9H       0.126500
     32 H5          33.0470     4.7800    16.1310 ha         1 P9H       0.106500
     33 H6          34.9340     4.0150    14.6940 ha         1 P9H       0.099000
     34 H7          36.3950     5.6890    13.5650 ha         1 P9H       0.106500
     35 H8          35.9760     8.1170    13.8670 ha         1 P9H       0.126500
     36 H9          31.7020    11.1640    15.9950 h1         1 P9H       0.088700
     37 H10         30.7450     6.7900    13.9430 hc         1 P9H       0.038700
     38 H11         31.1120     7.8130    12.5610 hc         1 P9H       0.038700
     39 H12         31.0060    15.7690    15.5360 h1         1 P9H       0.033200
     40 H13         29.8550    15.0770    16.7140 h1         1 P9H       0.033200
     41 H14         30.2850    10.8500    13.3480 hn         1 P9H       0.332500
     42 H15         36.3370     8.6730    17.4230 h4         1 P9H      -0.022800
     43 H16         36.0680     9.9660    15.4280 hc         1 P9H       0.070700
     44 H17         34.9290    11.1030    16.2370 hc         1 P9H       0.070700
     45 H18         29.0470     9.1390    12.9540 hc         1 P9H       0.071200
     46 H19         28.6050     8.0500    14.3110 hc         1 P9H       0.071200
     47 H20         28.6760     5.9890    12.8410 h1         1 P9H      -0.002300
     48 H21         33.1170     9.4380    16.0260 h1         1 P9H       0.110700
     49 H22         33.5450    12.3100    14.8600 h1         1 P9H       0.076200
     50 H23         32.6680    12.3030    13.3240 h1         1 P9H       0.076200
     51 H24         32.2220    13.4300    16.5630 hn         1 P9H       0.345500
     52 C           35.5010     9.4070    17.4220 c          1 P9H       0.571900
     53 C17         30.9120    15.1290    16.4220 c3         1 P9H      -0.059000
@<TRIPOS>BOND
     1     1    15 1   
     2     1    29 1   
     3     1    30 1   
     4     2     3 ar  
     5     2    19 ar  
     6     2    31 1   
     7     3     4 ar  
     8     3    32 1   
     9     4     5 ar  
    10     4    33 1   
    11     5     6 ar  
    12     5    34 1   
    13     6    19 ar  
    14     6    35 1   
    15     7    10 1   
    16     7    16 1   
    17     7    20 1   
    18     7    36 1   
    19     8    14 1   
    20     8    15 1   
    21     8    37 1   
    22     8    38 1   
    23     9    15 1   
    24     9    22 1   
    25     9    23 1   
    26    10    13 1   
    27    10    41 1   
    28    11    52 2   
    29    12    18 1   
    30    12    43 1   
    31    12    44 1   
    32    12    52 1   
    33    13    14 1   
    34    13    24 2   
    35    14    45 1   
    36    14    46 1   
    37    15    47 1   
    38    16    21 1   
    39    16    25 2   
    40    17    26 1   
    41    17    27 1   
    42    17    53 1   
    43    18    19 1   
    44    18    28 1   
    45    18    48 1   
    46    20    28 1   
    47    20    49 1   
    48    20    50 1   
    49    21    51 1   
    50    21    53 1   
    51    39    53 1   
    52    40    53 1   
    53    42    52 1   
@<TRIPOS>SUBSTRUCTURE
     1 P9H         1 TEMP              0 ****  ****    0 ROOT
