@<TRIPOS>MOLECULE
P9I
   31    33     1     0     0
SMALL
bcc


@<TRIPOS>ATOM
      1 O            3.9390     1.0810    -0.0210 oh         1 P9I      -0.465100
      2 C2           2.7630     1.6530    -0.0030 c2         1 P9I       0.271900
      3 C1           2.7150     3.1350     0.0080 c3         1 P9I      -0.130900
      4 C3           1.6360     0.8700     0.0030 cc         1 P9I      -0.189100
      5 N2           1.5790    -0.5380    -0.0090 na         1 P9I       0.095700
      6 C15          2.5900    -1.4390    -0.0290 ca         1 P9I      -0.045300
      7 C14          2.3080    -2.7750    -0.0390 ca         1 P9I      -0.135000
      8 C13          0.9790    -3.2070    -0.0290 ca         1 P9I      -0.046000
      9 C12         -0.0430    -2.2870    -0.0090 ca         1 P9I      -0.095000
     10 C11          0.2620    -0.9280     0.0020 ca         1 P9I       0.053900
     11 C5          -0.5570     0.2520     0.0210 cd         1 P9I      -0.142000
     12 C4           0.2910     1.3190     0.0210 cc         1 P9I      -0.061000
     13 C6          -2.0210     0.2970     0.0400 ca         1 P9I       0.465100
     14 N1          -2.6680    -0.8660     0.0950 nb         1 P9I      -0.691000
     15 C10         -3.9940    -0.8630     0.1170 ca         1 P9I       0.420200
     16 C9          -4.7540     0.2950     0.0880 ca         1 P9I      -0.214300
     17 C8          -4.0850     1.5090     0.0290 ca         1 P9I      -0.078000
     18 C7          -2.7020     1.5150     0.0030 ca         1 P9I      -0.220300
     19 H            4.6620     1.7240    -0.0230 ho         1 P9I       0.482000
     20 H11C         3.2010     3.5200    -0.8910 hc         1 P9I       0.094367
     21 H12C         1.7070     3.5320     0.0490 hc         1 P9I       0.094367
     22 H13C         3.2690     3.5110     0.8710 hc         1 P9I       0.094367
     23 H4           0.0080     2.3590     0.0360 ha         1 P9I       0.178000
     24 H15          3.5990    -1.0690    -0.0350 h4         1 P9I       0.198000
     25 H14          3.1270    -3.4780    -0.0540 ha         1 P9I       0.184000
     26 H13          0.7540    -4.2640    -0.0380 ha         1 P9I       0.178000
     27 H12         -1.0790    -2.5840     0.0020 ha         1 P9I       0.212000
     28 H7          -2.1680     2.4540    -0.0480 ha         1 P9I       0.140000
     29 H10         -4.4740    -1.8340     0.1620 h4         1 P9I       0.034100
     30 H9          -5.8330     0.2440     0.1100 ha         1 P9I       0.162000
     31 H8          -4.6330     2.4410     0.0020 ha         1 P9I       0.155000
@<TRIPOS>BOND
     1     1     2 1   
     2     1    19 1   
     3     2     3 1   
     4     2     4 2   
     5     3    20 1   
     6     3    21 1   
     7     3    22 1   
     8     4     5 1   
     9     4    12 1   
    10     5     6 1   
    11     5    10 2   
    12     6     7 ar  
    13     6    24 1   
    14     7     8 ar  
    15     7    25 1   
    16     8     9 ar  
    17     8    26 1   
    18     9    10 ar  
    19     9    27 1   
    20    10    11 1   
    21    11    12 2   
    22    11    13 1   
    23    12    23 1   
    24    13    14 ar  
    25    13    18 ar  
    26    14    15 ar  
    27    15    16 ar  
    28    15    29 1   
    29    16    17 ar  
    30    16    30 1   
    31    17    18 ar  
    32    17    31 1   
    33    18    28 1   
@<TRIPOS>SUBSTRUCTURE
     1 P9I         1 TEMP              0 ****  ****    0 ROOT
