@<TRIPOS>MOLECULE
P9I
   31    33     1     0     0
SMALL
No Charge or Current Charge


@<TRIPOS>ATOM
      1 O            4.0010     1.1560     0.0200 oh         1 P9I      -0.504100
      2 C2           2.7660     1.6800     0.0210 c2         1 P9I       0.271900
      3 C1           2.7030     3.1950     0.0250 c3         1 P9I      -0.130900
      4 C3           1.6930     0.8290     0.0170 cc         1 P9I      -0.189100
      5 N2           1.6280    -0.5730     0.0130 na         1 P9I       0.146400
      6 C15          2.6710    -1.5040     0.0100 ca         1 P9I      -0.078000
      7 C14          2.3580    -2.8780     0.0060 ca         1 P9I      -0.117000
      8 C13          1.0090    -3.2930     0.0040 ca         1 P9I      -0.028000
      9 C12         -0.0270    -2.3360     0.0060 ca         1 P9I      -0.077000
     10 C11          0.3060    -0.9630     0.0110 ca         1 P9I       0.053900
     11 C5          -0.5530     0.2230     0.0140 cd         1 P9I      -0.142000
     12 C4           0.3200     1.2970     0.0180 cc         1 P9I      -0.111000
     13 C6          -2.0390     0.2890     0.0130 ca         1 P9I       0.399800
     14 N1          -2.7260    -0.8780     0.0090 nb         1 P9I      -0.691000
     15 C10         -4.0790    -0.8420     0.0080 ca         1 P9I       0.354900
     16 C9          -4.8100     0.3540     0.0110 ca         1 P9I      -0.131000
     17 C8          -4.1150     1.5720     0.0150 ca         1 P9I      -0.060000
     18 C7          -2.7110     1.5330     0.0160 ca         1 P9I      -0.137000
     19 H            4.6440     1.8970     0.0230 ho         1 P9I       0.521000
     20 H11C         2.1680     3.5610    -0.8590 hc         1 P9I       0.094367
     21 H12C         2.1680     3.5550     0.9110 hc         1 P9I       0.094367
     22 H13C         3.6920     3.6680     0.0270 hc         1 P9I       0.094367
     23 H4           0.0400     2.3490     0.0210 ha         1 P9I       0.228000
     24 H15          3.7040    -1.1700     0.0120 h4         1 P9I       0.180000
     25 H14          3.1550    -3.6200     0.0040 ha         1 P9I       0.166000
     26 H13          0.7670    -4.3540     0.0000 ha         1 P9I       0.160000
     27 H12         -1.0560    -2.6780     0.0040 ha         1 P9I       0.194000
     28 H7          -2.1600     2.4670     0.0190 ha         1 P9I       0.122000
     29 H10         -4.5910    -1.8040     0.0050 h4         1 P9I       0.034100
     30 H9          -5.8970     0.3300     0.0100 ha         1 P9I       0.144000
     31 H8          -4.6490     2.5200     0.0180 ha         1 P9I       0.137000
@<TRIPOS>BOND
     1     1     2 1   
     2     1    19 1   
     3     2     3 1   
     4     2     4 2   
     5     3    20 1   
     6     3    21 1   
     7     3    22 1   
     8     4     5 1   
     9     4    12 1   
    10     5     6 1   
    11     5    10 2   
    12     6     7 ar  
    13     6    24 1   
    14     7     8 ar  
    15     7    25 1   
    16     8     9 ar  
    17     8    26 1   
    18     9    10 ar  
    19     9    27 1   
    20    10    11 1   
    21    11    12 2   
    22    11    13 1   
    23    12    23 1   
    24    13    14 ar  
    25    13    18 ar  
    26    14    15 ar  
    27    15    16 ar  
    28    15    29 1   
    29    16    17 ar  
    30    16    30 1   
    31    17    18 ar  
    32    17    31 1   
    33    18    28 1   
@<TRIPOS>SUBSTRUCTURE
     1 P9I         1 TEMP              0 ****  ****    0 ROOT
