@<TRIPOS>MOLECULE
P9J
   39    42     1     0     0
SMALL
abcg2


@<TRIPOS>ATOM
      1 C1          -2.1780    -1.0840    -0.0880 c          1 P9J       0.554600
      2 N2          -0.8210    -1.1560     0.0330 n          1 P9J      -0.050000
      3 C3          -2.7160     0.2810    -0.0710 ca         1 P9J      -0.132600
      4 C4          -4.0980     0.4660    -0.1210 ca         1 P9J      -0.051000
      5 C5          -4.6250     1.7400    -0.0960 ca         1 P9J      -0.109000
      6 C6          -3.7760     2.8430    -0.0240 ca         1 P9J      -0.085000
      7 C7          -2.4080     2.6710     0.0210 ca         1 P9J      -0.103000
      8 C8          -1.8590     1.3850    -0.0060 ca         1 P9J      -0.130900
      9 C9          -0.4320     1.0980     0.0280 cc         1 P9J       0.636800
     10 N10          0.0320    -0.1010     0.0530 nd         1 P9J      -0.517300
     11 C11         -0.1570    -2.4160     0.0230 ca         1 P9J       0.067600
     12 C12          0.8550    -2.6370    -0.9020 ca         1 P9J      -0.095500
     13 C13          1.5280    -3.8500    -0.9090 ca         1 P9J      -0.107500
     14 C14          1.1880    -4.8430    -0.0010 ca         1 P9J      -0.112000
     15 C15          0.1780    -4.6130     0.9240 ca         1 P9J      -0.107500
     16 C16         -0.4950    -3.4000     0.9430 ca         1 P9J      -0.095500
     17 N17          0.4450     2.1410     0.0390 nu         1 P9J      -0.860100
     18 C18          1.8280     2.0870     0.0270 cc         1 P9J       0.509900
     19 C19          2.7170     0.9920     0.0470 cc         1 P9J      -0.226000
     20 C20          3.9700     1.5720     0.0180 cd         1 P9J      -0.126300
     21 N21          3.7670     2.8970    -0.0130 na         1 P9J      -0.003200
     22 N22          2.4760     3.2380    -0.0080 nd         1 P9J      -0.590800
     23 C23          5.3220     0.9540     0.0030 c3         1 P9J      -0.033800
     24 O24         -2.8800    -2.0790    -0.2010 o          1 P9J      -0.539000
     25 H4          -4.7500    -0.3950    -0.1730 ha         1 P9J       0.144000
     26 H5          -5.6970     1.8830    -0.1310 ha         1 P9J       0.123000
     27 H6          -4.1880     3.8430    -0.0010 ha         1 P9J       0.120000
     28 H7          -1.7850     3.5530     0.0810 ha         1 P9J       0.117000
     29 H12          1.1190    -1.8620    -1.6090 ha         1 P9J       0.127000
     30 H13          2.3160    -4.0170    -1.6320 ha         1 P9J       0.114000
     31 H14          1.7120    -5.7900    -0.0090 ha         1 P9J       0.112000
     32 H15         -0.0850    -5.3780     1.6420 ha         1 P9J       0.114000
     33 H16         -1.2660    -3.2240     1.6800 ha         1 P9J       0.127000
     34 HN17         0.0730     3.0730    -0.0150 hn         1 P9J       0.513000
     35 H19          2.4910    -0.0570     0.0770 ha         1 P9J       0.168000
     36 H23          5.8060     1.0760    -0.9670 hc         1 P9J       0.052033
     37 H23A         5.9750     1.3970     0.7550 hc         1 P9J       0.052033
     38 H23B         5.2480    -0.1120     0.2060 hc         1 P9J       0.052033
     39 HN21         4.4680     3.6190    -0.0410 hn         1 P9J       0.370000
@<TRIPOS>BOND
     1     1     2 1   
     2     1     3 1   
     3     1    24 2   
     4     2    10 1   
     5     2    11 1   
     6     3     4 ar  
     7     3     8 ar  
     8     4     5 ar  
     9     4    25 1   
    10     5     6 ar  
    11     5    26 1   
    12     6     7 ar  
    13     6    27 1   
    14     7     8 ar  
    15     7    28 1   
    16     8     9 1   
    17     9    10 2   
    18     9    17 1   
    19    11    12 ar  
    20    11    16 ar  
    21    12    13 ar  
    22    12    29 1   
    23    13    14 ar  
    24    13    30 1   
    25    14    15 ar  
    26    14    31 1   
    27    15    16 ar  
    28    15    32 1   
    29    16    33 1   
    30    17    18 1   
    31    17    34 1   
    32    18    19 1   
    33    18    22 2   
    34    19    20 2   
    35    19    35 1   
    36    20    21 1   
    37    20    23 1   
    38    21    22 1   
    39    21    39 1   
    40    23    36 1   
    41    23    37 1   
    42    23    38 1   
@<TRIPOS>SUBSTRUCTURE
     1 P9J         1 TEMP              0 ****  ****    0 ROOT
