@<TRIPOS>MOLECULE
P9J
   39    42     1     0     0
SMALL
No Charge or Current Charge


@<TRIPOS>ATOM
      1 C1          -2.2260    -1.1320    -0.0360 c          1 P9J       0.554600
      2 N2          -0.8120    -1.2410    -0.1480 n          1 P9J      -0.050000
      3 C3          -2.7500     0.2690     0.0170 ca         1 P9J      -0.132600
      4 C4          -4.1330     0.5230     0.1420 ca         1 P9J      -0.051000
      5 C5          -4.6050     1.8430     0.2060 ca         1 P9J      -0.109000
      6 C6          -3.6980     2.9110     0.1510 ca         1 P9J      -0.085000
      7 C7          -2.3210     2.6630     0.0260 ca         1 P9J      -0.103000
      8 C8          -1.8280     1.3350    -0.0530 ca         1 P9J      -0.130900
      9 C9          -0.3830     1.0360    -0.1850 cc         1 P9J       0.636800
     10 N10          0.1240    -0.1920    -0.2290 nd         1 P9J      -0.517300
     11 C11         -0.1610    -2.5250    -0.1630 ca         1 P9J       0.067600
     12 C12          0.7230    -2.8660    -1.2090 ca         1 P9J      -0.095500
     13 C13          1.3640    -4.1170    -1.2210 ca         1 P9J      -0.107500
     14 C14          1.1300    -5.0370    -0.1850 ca         1 P9J      -0.112000
     15 C15          0.2560    -4.7050     0.8630 ca         1 P9J      -0.107500
     16 C16         -0.3860    -3.4530     0.8750 ca         1 P9J      -0.095500
     17 N17          0.5080     2.0610    -0.3430 nu         1 P9J      -0.860100
     18 C18          1.8590     2.1570    -0.2820 cc         1 P9J       0.509900
     19 C19          2.7210     1.2300     0.3090 cc         1 P9J      -0.226000
     20 C20          3.9760     1.7410     0.1810 cd         1 P9J      -0.126300
     21 N21          3.7910     2.9670    -0.4780 na         1 P9J      -0.003200
     22 N22          2.4430     3.2240    -0.7560 nd         1 P9J      -0.590800
     23 C23          5.3040     1.1910     0.6290 c3         1 P9J      -0.033800
     24 O24         -2.9710    -2.1070     0.0050 o          1 P9J      -0.539000
     25 H4          -4.8430    -0.3000     0.1930 ha         1 P9J       0.144000
     26 H5          -5.6710     2.0360     0.3040 ha         1 P9J       0.123000
     27 H6          -4.0620     3.9350     0.2090 ha         1 P9J       0.120000
     28 H7          -1.6500     3.5170    -0.0010 ha         1 P9J       0.117000
     29 H12          0.9090    -2.1600    -2.0150 ha         1 P9J       0.127000
     30 H13          2.0420    -4.3730    -2.0320 ha         1 P9J       0.114000
     31 H14          1.6260    -6.0050    -0.1940 ha         1 P9J       0.112000
     32 H15          0.0770    -5.4150     1.6680 ha         1 P9J       0.114000
     33 H16         -1.0550    -3.2030     1.6950 ha         1 P9J       0.127000
     34 HN17         0.0810     2.9210    -0.6560 hn         1 P9J       0.513000
     35 H19          2.4370     0.3000     0.7850 ha         1 P9J       0.168000
     36 H23          5.9920     1.0830    -0.2170 hc         1 P9J       0.052033
     37 H23A         5.7760     1.8530     1.3650 hc         1 P9J       0.052033
     38 H23B         5.1880     0.2050     1.0930 hc         1 P9J       0.052033
     39 HN21         4.5260     3.6270    -0.7330 hn         1 P9J       0.370000
@<TRIPOS>BOND
     1     1     2 1   
     2     1     3 1   
     3     1    24 2   
     4     2    10 1   
     5     2    11 1   
     6     3     4 ar  
     7     3     8 ar  
     8     4     5 ar  
     9     4    25 1   
    10     5     6 ar  
    11     5    26 1   
    12     6     7 ar  
    13     6    27 1   
    14     7     8 ar  
    15     7    28 1   
    16     8     9 1   
    17     9    10 2   
    18     9    17 1   
    19    11    12 ar  
    20    11    16 ar  
    21    12    13 ar  
    22    12    29 1   
    23    13    14 ar  
    24    13    30 1   
    25    14    15 ar  
    26    14    31 1   
    27    15    16 ar  
    28    15    32 1   
    29    16    33 1   
    30    17    18 1   
    31    17    34 1   
    32    18    19 1   
    33    18    22 2   
    34    19    20 2   
    35    19    35 1   
    36    20    21 1   
    37    20    23 1   
    38    21    22 1   
    39    21    39 1   
    40    23    36 1   
    41    23    37 1   
    42    23    38 1   
@<TRIPOS>SUBSTRUCTURE
     1 P9J         1 TEMP              0 ****  ****    0 ROOT
