@<TRIPOS>MOLECULE
P9K
   54    57     1     0     0
SMALL
abcg2


@<TRIPOS>ATOM
      1 C1          14.8420    -6.5620    51.2450 ca         1 P9K      -0.360300
      2 C2          13.7380    -6.4760    50.3870 ca         1 P9K       0.411000
      3 C7          15.2640    -7.8580    51.8400 c3         1 P9K       0.391300
      4 C12         12.4660    -2.7150    49.0280 ca         1 P9K       0.271000
      5 C13         11.9820    -3.5250    47.9950 ca         1 P9K      -0.049000
      6 C14         10.6730    -1.1170    48.6500 ca         1 P9K      -0.123000
      7 C15         11.8130    -1.5220    49.3360 ca         1 P9K      -0.114000
      8 C16         10.1940    -1.9460    47.6550 ca         1 P9K      -0.043000
      9 C19          8.9360    -2.8190    45.9570 c          1 P9K       0.565000
     10 C24         11.7110    -8.9170    48.5920 ca         1 P9K      -0.130900
     11 C27         10.0500   -11.0730    47.9890 ca         1 P9K      -0.078000
     12 C32         10.5630    -7.6130    45.4560 c3         1 P9K       0.184100
     13 C34         12.8060    -9.8430    44.3850 c3         1 P9K      -0.376100
     14 N3          13.3330    -5.3200    49.8950 nb         1 P9K      -0.288000
     15 C4          14.0240    -4.2310    50.2240 ca         1 P9K       0.422900
     16 N5          15.1100    -4.2100    51.0070 nb         1 P9K      -0.255000
     17 C6          15.4980    -5.3660    51.5040 ca         1 P9K       0.207900
     18 F8          14.3250    -8.3810    52.6420 f          1 P9K      -0.112333
     19 F9          15.5380    -8.7880    50.9150 f          1 P9K      -0.112333
     20 F10         16.3690    -7.7200    52.5850 f          1 P9K      -0.112333
     21 N11         13.6250    -3.0280    49.7560 nu         1 P9K      -0.922900
     22 C17         10.8410    -3.1360    47.3290 ca         1 P9K      -0.128300
     23 C18         10.0810    -3.7880    46.2190 c5         1 P9K      -0.119100
     24 N20          9.0810    -1.7890    46.8390 ns         1 P9K      -0.147000
     25 O21          8.0560    -2.9260    45.1300 o          1 P9K      -0.527000
     26 N22         13.0420    -7.6290    50.0850 ne         1 P9K      -0.680700
     27 C23         12.5240    -7.7530    48.9290 cf         1 P9K       0.583800
     28 C25         11.3420    -9.8310    49.5810 ca         1 P9K      -0.047000
     29 C26         10.5200   -10.9020    49.2860 ca         1 P9K      -0.112000
     30 C28         10.4210   -10.1860    46.9910 ca         1 P9K      -0.143000
     31 C29         11.2590    -9.1160    47.2810 ca         1 P9K       0.262000
     32 N30         11.6360    -8.1970    46.2620 nh         1 P9K      -0.759300
     33 S31         13.0920    -8.4850    45.4960 s6         1 P9K       1.194100
     34 O33         14.0280    -8.9280    46.5150 o          1 P9K      -0.523000
     35 O35         13.3920    -7.3000    44.7110 o          1 P9K      -0.523000
     36 H1          12.4880    -4.4390    47.7190 ha         1 P9K       0.142000
     37 H2          10.1810    -0.1870    48.9040 ha         1 P9K       0.126000
     38 H3          12.1970    -0.8980    50.1340 ha         1 P9K       0.118000
     39 H4           9.4000   -11.9050    47.7510 ha         1 P9K       0.121000
     40 H5           9.7760    -7.2880    46.1310 h1         1 P9K       0.055367
     41 H6          10.9320    -6.7370    44.9290 h1         1 P9K       0.055367
     42 H7          10.1350    -8.3090    44.7300 h1         1 P9K       0.055367
     43 H8          12.5150   -10.7220    44.9550 h1         1 P9K       0.104033
     44 H9          12.0310    -9.5810    43.6680 h1         1 P9K       0.104033
     45 H10         13.7400   -10.0390    43.8590 h1         1 P9K       0.104033
     46 H11         16.3740    -5.3370    52.1420 h4         1 P9K       0.041100
     47 H12         14.1420    -2.2490    50.1360 hn         1 P9K       0.516000
     48 H13          9.6790    -4.7660    46.4940 hc         1 P9K       0.090200
     49 H14         10.6700    -3.9300    45.3100 hc         1 P9K       0.090200
     50 H15          8.4500    -1.0020    46.8790 hn         1 P9K       0.173000
     51 H16         12.6550    -6.9950    48.1580 h4         1 P9K       0.004800
     52 H17         11.7010    -9.6850    50.5920 ha         1 P9K       0.150000
     53 H18         10.2380   -11.5980    50.0640 ha         1 P9K       0.126000
     54 H19         10.0600   -10.3340    45.9810 ha         1 P9K       0.117000
@<TRIPOS>BOND
     1     1     2 ar  
     2     1     3 1   
     3     1    17 ar  
     4     2    14 ar  
     5     2    26 1   
     6     3    18 1   
     7     3    19 1   
     8     3    20 1   
     9     4     5 ar  
    10     4     7 ar  
    11     4    21 1   
    12     5    22 ar  
    13     5    36 1   
    14     6     7 ar  
    15     6     8 ar  
    16     6    37 1   
    17     7    38 1   
    18     8    22 ar  
    19     8    24 1   
    20     9    23 1   
    21     9    24 1   
    22     9    25 2   
    23    10    27 1   
    24    10    28 ar  
    25    10    31 ar  
    26    11    29 ar  
    27    11    30 ar  
    28    11    39 1   
    29    12    32 1   
    30    12    40 1   
    31    12    41 1   
    32    12    42 1   
    33    13    33 1   
    34    13    43 1   
    35    13    44 1   
    36    13    45 1   
    37    14    15 ar  
    38    15    16 ar  
    39    15    21 1   
    40    16    17 ar  
    41    17    46 1   
    42    21    47 1   
    43    22    23 1   
    44    23    48 1   
    45    23    49 1   
    46    24    50 1   
    47    26    27 2   
    48    27    51 1   
    49    28    29 ar  
    50    28    52 1   
    51    29    53 1   
    52    30    31 ar  
    53    30    54 1   
    54    31    32 1   
    55    32    33 1   
    56    33    34 2   
    57    33    35 2   
@<TRIPOS>SUBSTRUCTURE
     1 P9K         1 TEMP              0 ****  ****    0 ROOT
