@<TRIPOS>MOLECULE
P9K
   54    57     1     0     0
SMALL
No Charge or Current Charge


@<TRIPOS>ATOM
      1 C1          14.8530    -6.5770    51.1520 ca         1 P9K      -0.360300
      2 C2          13.6150    -6.4850    50.4890 ca         1 P9K       0.411000
      3 C7          15.4510    -7.9150    51.5860 c3         1 P9K       0.391300
      4 C12         12.2750    -2.5560    49.1980 ca         1 P9K       0.271000
      5 C13         11.7600    -3.3640    48.1510 ca         1 P9K      -0.049000
      6 C14         10.6540    -0.7900    48.6310 ca         1 P9K      -0.123000
      7 C15         11.7230    -1.2690    49.4200 ca         1 P9K      -0.114000
      8 C16         10.1700    -1.6270    47.6230 ca         1 P9K      -0.043000
      9 C19          8.9050    -2.4430    45.8080 c          1 P9K       0.565000
     10 C24         11.7480    -9.0970    48.5970 ca         1 P9K      -0.130900
     11 C27         10.0390   -11.2470    47.9280 ca         1 P9K      -0.078000
     12 C32         10.7380    -7.5480    45.5700 c3         1 P9K       0.184100
     13 C34         12.8710   -10.3020    44.5570 c3         1 P9K      -0.376100
     14 N3          13.1120    -5.2980    50.1170 nb         1 P9K      -0.288000
     15 C4          13.8440    -4.2110    50.3880 ca         1 P9K       0.422900
     16 N5          15.0210    -4.1780    51.0250 nb         1 P9K      -0.255000
     17 C6          15.5260    -5.3650    51.4060 ca         1 P9K       0.207900
     18 F8          14.6490    -8.5650    52.4590 f          1 P9K      -0.112333
     19 F9          15.6530    -8.7400    50.5330 f          1 P9K      -0.112333
     20 F10         16.6490    -7.7750    52.1980 f          1 P9K      -0.112333
     21 N11         13.3420    -2.9730    50.0100 nu         1 P9K      -0.922900
     22 C17         10.6970    -2.8740    47.3780 ca         1 P9K      -0.128300
     23 C18          9.9620    -3.5220    46.2090 c5         1 P9K      -0.119100
     24 N20          9.1480    -1.4200    46.7040 ns         1 P9K      -0.147000
     25 O21          8.0520    -2.4580    44.9290 o          1 P9K      -0.527000
     26 N22         12.8730    -7.6330    50.1970 ne         1 P9K      -0.680700
     27 C23         12.5970    -7.9420    48.9600 cf         1 P9K       0.583800
     28 C25         11.3010   -10.0020    49.5900 ca         1 P9K      -0.047000
     29 C26         10.4580   -11.0730    49.2540 ca         1 P9K      -0.112000
     30 C28         10.4730   -10.3510    46.9390 ca         1 P9K      -0.143000
     31 C29         11.3330    -9.2840    47.2590 ca         1 P9K       0.262000
     32 N30         11.7320    -8.4090    46.2370 nh         1 P9K      -0.759300
     33 S31         13.1900    -8.7490    45.3710 s6         1 P9K       1.194100
     34 O33         14.2350    -8.9550    46.3770 o          1 P9K      -0.523000
     35 O35         13.3420    -7.7070    44.3520 o          1 P9K      -0.523000
     36 H1          12.1830    -4.3370    47.9280 ha         1 P9K       0.142000
     37 H2          10.2250     0.1950    48.8030 ha         1 P9K       0.126000
     38 H3          12.1190    -0.6410    50.2140 ha         1 P9K       0.118000
     39 H4           9.3790   -12.0720    47.6670 ha         1 P9K       0.121000
     40 H5           9.8320    -7.4600    46.1840 h1         1 P9K       0.055367
     41 H6          11.1400    -6.5360    45.4240 h1         1 P9K       0.055367
     42 H7          10.4540    -7.9630    44.5940 h1         1 P9K       0.055367
     43 H8          12.7010   -11.0540    45.3320 h1         1 P9K       0.104033
     44 H9          11.9870   -10.1670    43.9270 h1         1 P9K       0.104033
     45 H10         13.7550   -10.5430    43.9580 h1         1 P9K       0.104033
     46 H11         16.4870    -5.3320    51.9180 h4         1 P9K       0.041100
     47 H12         13.8340    -2.2070    50.4710 hn         1 P9K       0.516000
     48 H13          9.4420    -4.4510    46.4650 hc         1 P9K       0.090200
     49 H14         10.5960    -3.7370    45.3430 hc         1 P9K       0.090200
     50 H15          8.6090    -0.5650    46.6920 hn         1 P9K       0.173000
     51 H16         12.9410    -7.2970    48.1460 h4         1 P9K       0.004800
     52 H17         11.6030    -9.8760    50.6280 ha         1 P9K       0.150000
     53 H18         10.1220   -11.7630    50.0260 ha         1 P9K       0.126000
     54 H19         10.1410   -10.4860    45.9140 ha         1 P9K       0.117000
@<TRIPOS>BOND
     1     1     2 ar  
     2     1     3 1   
     3     1    17 ar  
     4     2    14 ar  
     5     2    26 1   
     6     3    18 1   
     7     3    19 1   
     8     3    20 1   
     9     4     5 ar  
    10     4     7 ar  
    11     4    21 1   
    12     5    22 ar  
    13     5    36 1   
    14     6     7 ar  
    15     6     8 ar  
    16     6    37 1   
    17     7    38 1   
    18     8    22 ar  
    19     8    24 1   
    20     9    23 1   
    21     9    24 1   
    22     9    25 2   
    23    10    27 1   
    24    10    28 ar  
    25    10    31 ar  
    26    11    29 ar  
    27    11    30 ar  
    28    11    39 1   
    29    12    32 1   
    30    12    40 1   
    31    12    41 1   
    32    12    42 1   
    33    13    33 1   
    34    13    43 1   
    35    13    44 1   
    36    13    45 1   
    37    14    15 ar  
    38    15    16 ar  
    39    15    21 1   
    40    16    17 ar  
    41    17    46 1   
    42    21    47 1   
    43    22    23 1   
    44    23    48 1   
    45    23    49 1   
    46    24    50 1   
    47    26    27 2   
    48    27    51 1   
    49    28    29 ar  
    50    28    52 1   
    51    29    53 1   
    52    30    31 ar  
    53    30    54 1   
    54    31    32 1   
    55    32    33 1   
    56    33    34 2   
    57    33    35 2   
@<TRIPOS>SUBSTRUCTURE
     1 P9K         1 TEMP              0 ****  ****    0 ROOT
