@<TRIPOS>MOLECULE
P9L
   41    43     1     0     0
SMALL
No Charge or Current Charge


@<TRIPOS>ATOM
      1 O3          -2.3030    -0.4840    -2.7390 o          1 P9L      -0.535000
      2 S           -2.2710     0.5630    -1.7110 sy         1 P9L       1.155600
      3 O2          -2.8050     1.9010    -1.9890 o          1 P9L      -0.535000
      4 N3          -3.1700    -0.0410    -0.3910 n3         1 P9L      -0.705500
      5 C14         -3.2300     0.8600     0.8010 c6         1 P9L       0.147800
      6 C13         -4.1860     0.3010     1.8930 c6         1 P9L       0.154600
      7 O4          -3.7960    -1.0440     2.2590 os         1 P9L      -0.443000
      8 C12         -3.8010    -1.9510     1.1310 c6         1 P9L       0.154600
      9 C11         -2.8380    -1.4380     0.0220 c6         1 P9L       0.147800
     10 C5          -0.6070     0.6970    -1.0410 ca         1 P9L      -0.348500
     11 C4           0.2720    -0.3980    -1.1080 ca         1 P9L       0.030000
     12 C6          -0.1860     1.8910    -0.4290 ca         1 P9L       0.024000
     13 C7           1.1120     1.9860     0.0990 ca         1 P9L      -0.185000
     14 C8           2.0250     0.9140    -0.0220 ca         1 P9L       0.058000
     15 C3           1.5700    -0.2970    -0.5740 ca         1 P9L      -0.172300
     16 C2           2.4840    -1.5110    -0.6140 c6         1 P9L       0.151300
     17 N2           3.3130     0.9480     0.6200 n          1 P9L      -0.222400
     18 C9           3.9120     2.2600     0.9710 c3         1 P9L       0.087300
     19 C10          4.0630    -0.2220     0.8830 c          1 P9L       0.612000
     20 O1           5.0890    -0.1910     1.5530 o          1 P9L      -0.567000
     21 N1           3.6000    -1.4420     0.3470 n          1 P9L      -0.398800
     22 C1           4.3370    -2.6930     0.6300 c3         1 P9L       0.090300
     23 H141        -2.2310     0.9820     1.2450 h1         1 P9L       0.063950
     24 H142        -3.5820     1.8620     0.5160 h1         1 P9L       0.063950
     25 H111        -2.9050    -2.1260    -0.8330 h1         1 P9L       0.063950
     26 H112        -1.8080    -1.4960     0.4040 h1         1 P9L       0.063950
     27 H131        -4.1520     0.9420     2.7850 h1         1 P9L       0.058450
     28 H132        -5.2190     0.2910     1.5170 h1         1 P9L       0.058450
     29 H121        -3.4860    -2.9490     1.4690 h1         1 P9L       0.058450
     30 H122        -4.8220    -2.0310     0.7330 h1         1 P9L       0.058450
     31 H4          -0.0530    -1.3350    -1.5590 ha         1 P9L       0.135000
     32 H6          -0.8610     2.7410    -0.3450 ha         1 P9L       0.135000
     33 H7           1.3930     2.9080     0.5990 ha         1 P9L       0.127000
     34 H21C         1.8880    -2.4120    -0.4060 h1         1 P9L       0.055200
     35 H22C         2.8950    -1.6150    -1.6290 h1         1 P9L       0.055200
     36 H91C         3.5500     2.5770     1.9570 h1         1 P9L       0.053700
     37 H92C         5.0070     2.2000     0.9930 h1         1 P9L       0.053700
     38 H93C         3.6360     3.0120     0.2220 h1         1 P9L       0.053700
     39 H11C         5.3600    -2.6170     0.2400 h1         1 P9L       0.047367
     40 H12C         4.3760    -2.8640     1.7130 h1         1 P9L       0.047367
     41 H13C         3.8400    -3.5490     0.1550 h1         1 P9L       0.047367
@<TRIPOS>BOND
     1     1     2 2   
     2     2     3 2   
     3     2     4 1   
     4     2    10 1   
     5     4     5 1   
     6     4     9 1   
     7     5     6 1   
     8     5    23 1   
     9     5    24 1   
    10     6     7 1   
    11     6    27 1   
    12     6    28 1   
    13     7     8 1   
    14     8     9 1   
    15     8    29 1   
    16     8    30 1   
    17     9    25 1   
    18     9    26 1   
    19    10    11 ar  
    20    10    12 ar  
    21    11    15 ar  
    22    11    31 1   
    23    12    13 ar  
    24    12    32 1   
    25    13    14 ar  
    26    13    33 1   
    27    14    15 ar  
    28    14    17 1   
    29    15    16 1   
    30    16    21 1   
    31    16    34 1   
    32    16    35 1   
    33    17    18 1   
    34    17    19 1   
    35    18    36 1   
    36    18    37 1   
    37    18    38 1   
    38    19    20 2   
    39    19    21 1   
    40    21    22 1   
    41    22    39 1   
    42    22    40 1   
    43    22    41 1   
@<TRIPOS>SUBSTRUCTURE
     1 P9L         1 TEMP              0 ****  ****    0 ROOT
