@<TRIPOS>MOLECULE
P9L
   41    43     1     0     0
SMALL
abcg2


@<TRIPOS>ATOM
      1 O3          -2.2360    -0.5700    -2.5430 o          1 P9L      -0.535000
      2 S           -2.1990     0.4750    -1.5320 sy         1 P9L       1.155600
      3 O2          -2.7010     1.8010    -1.8500 o          1 P9L      -0.535000
      4 N3          -3.0880    -0.0760    -0.2460 n3         1 P9L      -0.705500
      5 C14         -3.2600     0.8480     0.8770 c6         1 P9L       0.147800
      6 C13         -4.3650     0.3130     1.7700 c6         1 P9L       0.154600
      7 O4          -4.0860    -0.9930     2.2160 os         1 P9L      -0.443000
      8 C12         -3.9340    -1.8740     1.1290 c6         1 P9L       0.154600
      9 C11         -2.8100    -1.4400     0.2070 c6         1 P9L       0.147800
     10 C5          -0.5360     0.6350    -0.9680 ca         1 P9L      -0.348500
     11 C4           0.3410    -0.4390    -1.0850 ca         1 P9L       0.030000
     12 C6          -0.1220     1.8170    -0.3680 ca         1 P9L       0.024000
     13 C7           1.1660     1.9240     0.1260 ca         1 P9L      -0.185000
     14 C8           2.0540     0.8530     0.0090 ca         1 P9L       0.058000
     15 C3           1.6310    -0.3270    -0.6100 ca         1 P9L      -0.172300
     16 C2           2.6460    -1.4080    -0.7720 c6         1 P9L       0.151300
     17 N2           3.3560     0.9200     0.4770 n          1 P9L      -0.222400
     18 C9           3.8840     2.1980     0.9200 c3         1 P9L       0.087300
     19 C10          4.0640    -0.2310     0.8140 c          1 P9L       0.612000
     20 O1           5.0700    -0.1660     1.5020 o          1 P9L      -0.567000
     21 N1           3.5490    -1.4000     0.3610 n          1 P9L      -0.398800
     22 C1           4.2870    -2.6210     0.6050 c3         1 P9L       0.090300
     23 H141        -2.3310     0.9470     1.4530 h1         1 P9L       0.063950
     24 H142        -3.5480     1.8330     0.5130 h1         1 P9L       0.063950
     25 H111        -2.7750    -2.1190    -0.6430 h1         1 P9L       0.063950
     26 H112        -1.8480    -1.4930     0.7350 h1         1 P9L       0.063950
     27 H131        -4.4580     0.9520     2.6480 h1         1 P9L       0.058450
     28 H132        -5.3170     0.3420     1.2230 h1         1 P9L       0.058450
     29 H121        -3.7080    -2.8620     1.5320 h1         1 P9L       0.058450
     30 H122        -4.8660    -1.9440     0.5520 h1         1 P9L       0.058450
     31 H4           0.0320    -1.3590    -1.5660 ha         1 P9L       0.135000
     32 H6          -0.7910     2.6620    -0.2790 ha         1 P9L       0.135000
     33 H7           1.4630     2.8470     0.6030 ha         1 P9L       0.127000
     34 H21C         2.1580    -2.3820    -0.8190 h1         1 P9L       0.055200
     35 H22C         3.1960    -1.2820    -1.7150 h1         1 P9L       0.055200
     36 H91C         3.4540     2.5100     1.8730 h1         1 P9L       0.053700
     37 H92C         4.9590     2.1280     1.0330 h1         1 P9L       0.053700
     38 H93C         3.6700     2.9580     0.1720 h1         1 P9L       0.053700
     39 H11C         5.0870    -2.7720    -0.1250 h1         1 P9L       0.047367
     40 H12C         4.7210    -2.6160     1.6000 h1         1 P9L       0.047367
     41 H13C         3.6000    -3.4630     0.5380 h1         1 P9L       0.047367
@<TRIPOS>BOND
     1     1     2 2   
     2     2     3 2   
     3     2     4 1   
     4     2    10 1   
     5     4     5 1   
     6     4     9 1   
     7     5     6 1   
     8     5    23 1   
     9     5    24 1   
    10     6     7 1   
    11     6    27 1   
    12     6    28 1   
    13     7     8 1   
    14     8     9 1   
    15     8    29 1   
    16     8    30 1   
    17     9    25 1   
    18     9    26 1   
    19    10    11 ar  
    20    10    12 ar  
    21    11    15 ar  
    22    11    31 1   
    23    12    13 ar  
    24    12    32 1   
    25    13    14 ar  
    26    13    33 1   
    27    14    15 ar  
    28    14    17 1   
    29    15    16 1   
    30    16    21 1   
    31    16    34 1   
    32    16    35 1   
    33    17    18 1   
    34    17    19 1   
    35    18    36 1   
    36    18    37 1   
    37    18    38 1   
    38    19    20 2   
    39    19    21 1   
    40    21    22 1   
    41    22    39 1   
    42    22    40 1   
    43    22    41 1   
@<TRIPOS>SUBSTRUCTURE
     1 P9L         1 TEMP              0 ****  ****    0 ROOT
