@<TRIPOS>MOLECULE
P9M
   45    47     1     0     0
SMALL
abcg2


@<TRIPOS>ATOM
      1 O3           2.2200    -2.5820     1.5400 o          1 P9M      -0.536500
      2 S            1.7530    -1.2180     1.3560 sy         1 P9M       1.161600
      3 O2           1.2640    -0.4740     2.5070 o          1 P9M      -0.536500
      4 N2           3.0150    -0.3770     0.7430 n7         1 P9M      -0.890300
      5 C13          2.9110     1.0440     0.4210 c5         1 P9M       0.218500
      6 C17          4.3190     1.6910     0.3650 c5         1 P9M      -0.096400
      7 C16          4.3770     2.4620    -0.9610 c5         1 P9M      -0.079900
      8 C15          2.9130     2.6890    -1.3310 c5         1 P9M      -0.079900
      9 C14          2.2540     1.3760    -0.9280 c5         1 P9M      -0.096400
     10 C11          0.4480    -1.2090     0.1400 ca         1 P9M      -0.292500
     11 C9           0.5890    -1.8640    -1.0890 ca         1 P9M       0.017700
     12 C10          1.8040    -2.6380    -1.5060 c3         1 P9M      -0.075800
     13 C8          -0.4820    -1.7630    -1.9730 ca         1 P9M      -0.133000
     14 C7          -1.6240    -1.0410    -1.6700 ca         1 P9M      -0.047000
     15 C12         -0.7000    -0.4970     0.4620 ca         1 P9M      -0.014000
     16 C6          -1.7500    -0.3910    -0.4460 ca         1 P9M      -0.019000
     17 C5          -2.9390     0.3960    -0.1180 cc         1 P9M      -0.190000
     18 C2          -4.3100     0.0220    -0.2430 cc         1 P9M       0.294300
     19 C1          -4.8660    -1.2660    -0.7350 c3         1 P9M      -0.134400
     20 C3          -2.9960     1.6590     0.3850 cd         1 P9M       0.208300
     21 C4          -1.9570     2.6510     0.7390 c3         1 P9M      -0.140400
     22 O1          -4.2730     2.0050     0.5500 os         1 P9M      -0.069700
     23 N1          -5.0890     0.9800     0.1620 nd         1 P9M      -0.362300
     24 H2           3.6110    -0.9240     0.1330 hn         1 P9M       0.487000
     25 H13          2.3400     1.5080     1.2260 h1         1 P9M       0.079700
     26 H171         4.4490     2.3610     1.2150 hc         1 P9M       0.052450
     27 H172         5.1050     0.9380     0.4360 hc         1 P9M       0.052450
     28 H141         2.4930     0.5990    -1.6610 hc         1 P9M       0.052450
     29 H142         1.1670     1.4380    -0.8670 hc         1 P9M       0.052450
     30 H161         4.9490     3.3870    -0.8820 hc         1 P9M       0.047450
     31 H162         4.8550     1.8510    -1.7310 hc         1 P9M       0.047450
     32 H151         2.4960     3.5140    -0.7450 hc         1 P9M       0.047450
     33 H152         2.7660     2.9310    -2.3850 hc         1 P9M       0.047450
     34 H12         -0.7880    -0.0240     1.4300 ha         1 P9M       0.146000
     35 H101         2.0170    -3.4630    -0.8290 hc         1 P9M       0.058033
     36 H102         1.6590    -3.0510    -2.5020 hc         1 P9M       0.058033
     37 H103         2.6950    -2.0100    -1.5490 hc         1 P9M       0.058033
     38 H8          -0.4120    -2.2560    -2.9340 ha         1 P9M       0.116000
     39 H7          -2.4140    -0.9710    -2.4060 ha         1 P9M       0.120000
     40 H11C        -4.3750    -2.1090    -0.2500 hc         1 P9M       0.057700
     41 H12C        -5.9350    -1.3280    -0.5410 hc         1 P9M       0.057700
     42 H13C        -4.7110    -1.3740    -1.8090 hc         1 P9M       0.057700
     43 H41C        -2.2080     3.6390     0.3520 hc         1 P9M       0.065700
     44 H42C        -1.8390     2.7360     1.8210 hc         1 P9M       0.065700
     45 H43C        -0.9980     2.3550     0.3190 hc         1 P9M       0.065700
@<TRIPOS>BOND
     1     1     2 2   
     2     2     3 2   
     3     2     4 1   
     4     2    10 1   
     5     4     5 1   
     6     4    24 1   
     7     5     6 1   
     8     5     9 1   
     9     5    25 1   
    10     6     7 1   
    11     6    26 1   
    12     6    27 1   
    13     7     8 1   
    14     7    30 1   
    15     7    31 1   
    16     8     9 1   
    17     8    32 1   
    18     8    33 1   
    19     9    28 1   
    20     9    29 1   
    21    10    11 ar  
    22    10    15 ar  
    23    11    12 1   
    24    11    13 ar  
    25    12    35 1   
    26    12    36 1   
    27    12    37 1   
    28    13    14 ar  
    29    13    38 1   
    30    14    16 ar  
    31    14    39 1   
    32    15    16 ar  
    33    15    34 1   
    34    16    17 1   
    35    17    18 1   
    36    17    20 2   
    37    18    19 1   
    38    18    23 2   
    39    19    40 1   
    40    19    41 1   
    41    19    42 1   
    42    20    21 1   
    43    20    22 1   
    44    21    43 1   
    45    21    44 1   
    46    21    45 1   
    47    22    23 1   
@<TRIPOS>SUBSTRUCTURE
     1 P9M         1 TEMP              0 ****  ****    0 ROOT
