@<TRIPOS>MOLECULE
P9M
   45    47     1     0     0
SMALL
No Charge or Current Charge


@<TRIPOS>ATOM
      1 O3           2.7820    -2.5400     1.2300 o          1 P9M      -0.536500
      2 S            1.9740    -1.3330     1.4050 sy         1 P9M       1.161600
      3 O2           1.5070    -0.9200     2.7320 o          1 P9M      -0.536500
      4 N2           2.9730    -0.0970     0.8890 n7         1 P9M      -0.890300
      5 C13          2.4410     1.1900     0.3910 c5         1 P9M       0.218500
      6 C17          3.6000     2.2350     0.5060 c5         1 P9M      -0.096400
      7 C16          4.1360     2.3730    -0.9420 c5         1 P9M      -0.079900
      8 C15          2.8070     2.3650    -1.7290 c5         1 P9M      -0.079900
      9 C14          2.1530     1.0870    -1.1470 c5         1 P9M      -0.096400
     10 C11          0.6160    -1.2900     0.2020 ca         1 P9M      -0.292500
     11 C9           0.6450    -1.9680    -1.0480 ca         1 P9M       0.017700
     12 C10          1.8300    -2.8000    -1.5330 c3         1 P9M      -0.075800
     13 C8          -0.4720    -1.8690    -1.8980 ca         1 P9M      -0.133000
     14 C7          -1.5960    -1.1120    -1.5390 ca         1 P9M      -0.047000
     15 C12         -0.5250    -0.5290     0.5480 ca         1 P9M      -0.014000
     16 C6          -1.6350    -0.4190    -0.3150 ca         1 P9M      -0.019000
     17 C5          -2.8110     0.3890     0.0590 cc         1 P9M      -0.190000
     18 C2          -4.1770     0.3010    -0.3060 cc         1 P9M       0.294300
     19 C1          -4.7900    -0.8630    -1.0340 c3         1 P9M      -0.134400
     20 C3          -2.7140     1.6080     0.6720 cd         1 P9M       0.208300
     21 C4          -1.5330     2.4260     1.1270 c3         1 P9M      -0.140400
     22 O1          -3.9550     2.1850     0.7490 os         1 P9M      -0.069700
     23 N1          -4.9050     1.3260     0.1030 nd         1 P9M      -0.362300
     24 H2           3.5340    -0.5590     0.1790 hn         1 P9M       0.487000
     25 H13          1.5690     1.5260     0.9720 h1         1 P9M       0.079700
     26 H171         3.2080     3.1940     0.8620 hc         1 P9M       0.052450
     27 H172         4.3840     1.9420     1.2140 hc         1 P9M       0.052450
     28 H141         2.6010     0.1950    -1.6000 hc         1 P9M       0.052450
     29 H142         1.0800     1.0490    -1.3650 hc         1 P9M       0.052450
     30 H161         4.7070     3.2970    -1.0910 hc         1 P9M       0.047450
     31 H162         4.7850     1.5340    -1.2230 hc         1 P9M       0.047450
     32 H151         2.2050     3.2610    -1.5300 hc         1 P9M       0.047450
     33 H152         2.9590     2.3010    -2.8120 hc         1 P9M       0.047450
     34 H12         -0.5610    -0.0380     1.5160 ha         1 P9M       0.146000
     35 H101         1.9100    -3.7380    -0.9710 hc         1 P9M       0.058033
     36 H102         1.7290    -3.0700    -2.5910 hc         1 P9M       0.058033
     37 H103         2.7770    -2.2570    -1.4400 hc         1 P9M       0.058033
     38 H8          -0.4710    -2.3790    -2.8580 ha         1 P9M       0.116000
     39 H7          -2.4170    -1.0380    -2.2440 ha         1 P9M       0.120000
     40 H11C        -4.2730    -1.7990    -0.7920 hc         1 P9M       0.057700
     41 H12C        -5.8420    -0.9890    -0.7540 hc         1 P9M       0.057700
     42 H13C        -4.7500    -0.7110    -2.1180 hc         1 P9M       0.057700
     43 H41C        -1.7880     3.4910     1.1670 hc         1 P9M       0.065700
     44 H42C        -1.2060     2.1270     2.1290 hc         1 P9M       0.065700
     45 H43C        -0.6890     2.3190     0.4370 hc         1 P9M       0.065700
@<TRIPOS>BOND
     1     1     2 2   
     2     2     3 2   
     3     2     4 1   
     4     2    10 1   
     5     4     5 1   
     6     4    24 1   
     7     5     6 1   
     8     5     9 1   
     9     5    25 1   
    10     6     7 1   
    11     6    26 1   
    12     6    27 1   
    13     7     8 1   
    14     7    30 1   
    15     7    31 1   
    16     8     9 1   
    17     8    32 1   
    18     8    33 1   
    19     9    28 1   
    20     9    29 1   
    21    10    11 ar  
    22    10    15 ar  
    23    11    12 1   
    24    11    13 ar  
    25    12    35 1   
    26    12    36 1   
    27    12    37 1   
    28    13    14 ar  
    29    13    38 1   
    30    14    16 ar  
    31    14    39 1   
    32    15    16 ar  
    33    15    34 1   
    34    16    17 1   
    35    17    18 1   
    36    17    20 2   
    37    18    19 1   
    38    18    23 2   
    39    19    40 1   
    40    19    41 1   
    41    19    42 1   
    42    20    21 1   
    43    20    22 1   
    44    21    43 1   
    45    21    44 1   
    46    21    45 1   
    47    22    23 1   
@<TRIPOS>SUBSTRUCTURE
     1 P9M         1 TEMP              0 ****  ****    0 ROOT
