@<TRIPOS>MOLECULE
P9N
   57    60     1     0     0
SMALL
No Charge or Current Charge


@<TRIPOS>ATOM
      1 C01         -3.0580     1.5430     1.0430 c6         1 P9N      -0.066400
      2 O01         -4.7740     0.9580    -2.2960 oh         1 P9N      -0.660000
      3 C02         -3.5330     1.8510    -0.3980 c6         1 P9N      -0.110400
      4 O02          5.4380     0.5480     0.3100 o          1 P9N      -0.525100
      5 C03         -4.3780     0.6820    -0.9500 c6         1 P9N       0.171300
      6 C04         -3.5800    -0.6400    -0.8920 c6         1 P9N      -0.071400
      7 C05         -3.0670    -0.9550     0.5520 c6         1 P9N      -0.049700
      8 C06         -2.2890    -2.3040     0.5770 c6         1 P9N      -0.068400
      9 C07         -0.9180    -2.2100    -0.1360 c6         1 P9N      -0.071400
     10 C08         -0.0450    -1.0600     0.4360 c6         1 P9N      -0.044700
     11 C09         -0.8190     0.3140     0.4120 c6         1 P9N      -0.045700
     12 C10         -2.2150     0.2230     1.1700 c6         1 P9N      -0.030000
     13 C11          0.1020     1.4910     0.9000 c6         1 P9N      -0.070400
     14 C12          1.4500     1.5580     0.1250 c6         1 P9N      -0.064400
     15 C13          2.2200     0.2080     0.1870 c5         1 P9N      -0.033000
     16 C14          1.2860    -0.9160    -0.3580 c5         1 P9N      -0.062700
     17 C15          2.2470    -2.1370    -0.4330 c5         1 P9N      -0.071400
     18 C16          3.5920    -1.5050    -0.9330 c5         1 P9N      -0.067400
     19 C17          3.3420     0.0480    -0.8990 c5         1 P9N      -0.166700
     20 C18          2.7290    -0.0060     1.6590 c3         1 P9N      -0.084100
     21 C19         -2.0120    -0.0220     2.7080 c3         1 P9N      -0.085100
     22 C20          4.6340     0.8520    -0.5640 c          1 P9N       0.583100
     23 C21          4.8490     2.1290    -1.3750 c3         1 P9N      -0.200100
     24 H1          -2.5090     2.4040     1.4440 hc         1 P9N       0.040200
     25 H2          -3.9500     1.4610     1.6810 hc         1 P9N       0.040200
     26 H3          -5.3000     1.7870    -2.2680 ho         1 P9N       0.440000
     27 H4          -4.1340     2.7710    -0.3910 hc         1 P9N       0.045200
     28 H5          -2.6750     2.0500    -1.0530 hc         1 P9N       0.045200
     29 H6          -5.2730     0.5720    -0.3180 h1         1 P9N       0.024700
     30 H7          -4.2230    -1.4610    -1.2370 hc         1 P9N       0.053200
     31 H8          -2.7490    -0.5890    -1.6070 hc         1 P9N       0.053200
     32 H9          -3.9610    -1.0900     1.1780 hc         1 P9N       0.043700
     33 H10         -2.1400    -2.6350     1.6130 hc         1 P9N       0.040200
     34 H11         -2.8930    -3.0910     0.1050 hc         1 P9N       0.040200
     35 H12         -0.3940    -3.1680    -0.0200 hc         1 P9N       0.040700
     36 H13         -1.0630    -2.0760    -1.2160 hc         1 P9N       0.040700
     37 H14          0.2070    -1.3220     1.4700 hc         1 P9N       0.051700
     38 H15         -1.0250     0.5280    -0.6440 hc         1 P9N       0.048700
     39 H16         -0.4070     2.4520     0.7600 hc         1 P9N       0.040200
     40 H17          0.2990     1.4110     1.9760 hc         1 P9N       0.040200
     41 H18          1.2420     1.8190    -0.9220 hc         1 P9N       0.038700
     42 H19          2.0710     2.3730     0.5220 hc         1 P9N       0.038700
     43 H20          0.9560    -0.6710    -1.3770 hc         1 P9N       0.043700
     44 H21          2.3680    -2.6200     0.5440 hc         1 P9N       0.044700
     45 H22          1.8780    -2.9060    -1.1210 hc         1 P9N       0.044700
     46 H23          4.4210    -1.8150    -0.2850 hc         1 P9N       0.053700
     47 H24          3.8480    -1.8410    -1.9450 hc         1 P9N       0.053700
     48 H25          2.9650     0.4110    -1.8640 hc         1 P9N       0.061700
     49 H26          1.9100    -0.1450     2.3720 hc         1 P9N       0.037700
     50 H27          3.3830    -0.8790     1.7600 hc         1 P9N       0.037700
     51 H28          3.3030     0.8600     2.0070 hc         1 P9N       0.037700
     52 H29         -1.3950    -0.8970     2.9310 hc         1 P9N       0.033367
     53 H30         -1.5410     0.8380     3.1980 hc         1 P9N       0.033367
     54 H31         -2.9730    -0.1780     3.2120 hc         1 P9N       0.033367
     55 H32          3.9410     2.7410    -1.3270 hc         1 P9N       0.059033
     56 H33          5.7360     2.6900    -1.0590 hc         1 P9N       0.059033
     57 H34          4.8950     1.8680    -2.4380 hc         1 P9N       0.059033
@<TRIPOS>BOND
     1     1     3 1   
     2     1    12 1   
     3     1    24 1   
     4     1    25 1   
     5     2     5 1   
     6     2    26 1   
     7     3     5 1   
     8     3    27 1   
     9     3    28 1   
    10     4    22 2   
    11     5     6 1   
    12     5    29 1   
    13     6     7 1   
    14     6    30 1   
    15     6    31 1   
    16     7     8 1   
    17     7    12 1   
    18     7    32 1   
    19     8     9 1   
    20     8    33 1   
    21     8    34 1   
    22     9    10 1   
    23     9    35 1   
    24     9    36 1   
    25    10    11 1   
    26    10    16 1   
    27    10    37 1   
    28    11    12 1   
    29    11    13 1   
    30    11    38 1   
    31    12    21 1   
    32    13    14 1   
    33    13    39 1   
    34    13    40 1   
    35    14    15 1   
    36    14    41 1   
    37    14    42 1   
    38    15    16 1   
    39    15    19 1   
    40    15    20 1   
    41    16    17 1   
    42    16    43 1   
    43    17    18 1   
    44    17    44 1   
    45    17    45 1   
    46    18    19 1   
    47    18    46 1   
    48    18    47 1   
    49    19    22 1   
    50    19    48 1   
    51    20    49 1   
    52    20    50 1   
    53    20    51 1   
    54    21    52 1   
    55    21    53 1   
    56    21    54 1   
    57    22    23 1   
    58    23    55 1   
    59    23    56 1   
    60    23    57 1   
@<TRIPOS>SUBSTRUCTURE
     1 P9N         1 TEMP              0 ****  ****    0 ROOT
