@<TRIPOS>MOLECULE
P9N
   57    60     1     0     0
SMALL
bcc


@<TRIPOS>ATOM
      1 C01         -2.9350     1.5530     0.9550 c6         1 P9N      -0.066400
      2 O01         -4.7670     0.7830    -2.2410 oh         1 P9N      -0.597800
      3 C02         -3.4290     1.8010    -0.4640 c6         1 P9N      -0.110400
      4 O02          5.6150     0.2010    -0.1520 o          1 P9N      -0.525100
      5 C03         -4.3150     0.6450    -0.9070 c6         1 P9N       0.148100
      6 C04         -3.5640    -0.6700    -0.8010 c6         1 P9N      -0.071400
      7 C05         -3.0020    -0.9190     0.6030 c6         1 P9N      -0.049700
      8 C06         -2.2480    -2.2490     0.6560 c6         1 P9N      -0.068400
      9 C07         -0.9080    -2.1940    -0.0700 c6         1 P9N      -0.071400
     10 C08         -0.0350    -1.0440     0.4250 c6         1 P9N      -0.044700
     11 C09         -0.7980     0.2920     0.3310 c6         1 P9N      -0.045700
     12 C10         -2.1310     0.2530     1.1220 c6         1 P9N      -0.030000
     13 C11          0.0910     1.4890     0.6830 c6         1 P9N      -0.070400
     14 C12          1.4160     1.5170    -0.0830 c6         1 P9N      -0.064400
     15 C13          2.1790     0.2070     0.0740 c5         1 P9N      -0.033000
     16 C14          1.2510    -0.9340    -0.3790 c5         1 P9N      -0.062700
     17 C15          2.1730    -2.1460    -0.4660 c5         1 P9N      -0.071400
     18 C16          3.5170    -1.5610    -0.9520 c5         1 P9N      -0.067400
     19 C17          3.3590    -0.0280    -0.9110 c5         1 P9N      -0.166700
     20 C18          2.6750     0.0360     1.5140 c3         1 P9N      -0.084100
     21 C19         -1.8850     0.0730     2.6250 c3         1 P9N      -0.085100
     22 C20          4.6170     0.7370    -0.5850 c          1 P9N       0.583100
     23 C21          4.5830     2.2280    -0.8090 c3         1 P9N      -0.200100
     24 H1          -2.3610     2.4090     1.3160 hc         1 P9N       0.040200
     25 H2          -3.8090     1.4920     1.6140 hc         1 P9N       0.040200
     26 H3          -5.2620     1.6060    -2.3040 ho         1 P9N       0.401000
     27 H4          -3.9940     2.7380    -0.4940 hc         1 P9N       0.045200
     28 H5          -2.5960     1.9160    -1.1640 hc         1 P9N       0.045200
     29 H6          -5.1750     0.6050    -0.2180 h1         1 P9N       0.024700
     30 H7          -4.2370    -1.4950    -1.0560 hc         1 P9N       0.053200
     31 H8          -2.7650    -0.6800    -1.5500 hc         1 P9N       0.053200
     32 H9          -3.8630    -0.9920     1.2810 hc         1 P9N       0.043700
     33 H10         -2.0790    -2.5350     1.6980 hc         1 P9N       0.040200
     34 H11         -2.8730    -3.0390     0.2260 hc         1 P9N       0.040200
     35 H12         -0.3850    -3.1450     0.0600 hc         1 P9N       0.040700
     36 H13         -1.0660    -2.0820    -1.1490 hc         1 P9N       0.040700
     37 H14          0.2220    -1.2460     1.4720 hc         1 P9N       0.051700
     38 H15         -1.0500     0.4110    -0.7330 hc         1 P9N       0.048700
     39 H16         -0.4390     2.4180     0.4620 hc         1 P9N       0.040200
     40 H17          0.2940     1.5100     1.7580 hc         1 P9N       0.040200
     41 H18          1.2190     1.6870    -1.1490 hc         1 P9N       0.038700
     42 H19          2.0000     2.3720     0.2680 hc         1 P9N       0.038700
     43 H20          0.9500    -0.6840    -1.4090 hc         1 P9N       0.043700
     44 H21          2.2810    -2.6190     0.5140 hc         1 P9N       0.044700
     45 H22          1.7880    -2.9120    -1.1410 hc         1 P9N       0.044700
     46 H23          4.3420    -1.8890    -0.3200 hc         1 P9N       0.053700
     47 H24          3.7540    -1.8860    -1.9650 hc         1 P9N       0.053700
     48 H25          3.0210     0.3290    -1.8910 hc         1 P9N       0.061700
     49 H26          1.8600    -0.0740     2.2280 hc         1 P9N       0.037700
     50 H27          3.3240    -0.8330     1.6290 hc         1 P9N       0.037700
     51 H28          3.2500     0.9090     1.8310 hc         1 P9N       0.037700
     52 H29         -1.3740    -0.8560     2.8740 hc         1 P9N       0.033367
     53 H30         -1.2940     0.8900     3.0390 hc         1 P9N       0.033367
     54 H31         -2.8370     0.0660     3.1610 hc         1 P9N       0.033367
     55 H32          4.2330     2.7210     0.1010 hc         1 P9N       0.059033
     56 H33          5.5800     2.6100    -1.0240 hc         1 P9N       0.059033
     57 H34          3.9020     2.5110    -1.6100 hc         1 P9N       0.059033
@<TRIPOS>BOND
     1     1     3 1   
     2     1    12 1   
     3     1    24 1   
     4     1    25 1   
     5     2     5 1   
     6     2    26 1   
     7     3     5 1   
     8     3    27 1   
     9     3    28 1   
    10     4    22 2   
    11     5     6 1   
    12     5    29 1   
    13     6     7 1   
    14     6    30 1   
    15     6    31 1   
    16     7     8 1   
    17     7    12 1   
    18     7    32 1   
    19     8     9 1   
    20     8    33 1   
    21     8    34 1   
    22     9    10 1   
    23     9    35 1   
    24     9    36 1   
    25    10    11 1   
    26    10    16 1   
    27    10    37 1   
    28    11    12 1   
    29    11    13 1   
    30    11    38 1   
    31    12    21 1   
    32    13    14 1   
    33    13    39 1   
    34    13    40 1   
    35    14    15 1   
    36    14    41 1   
    37    14    42 1   
    38    15    16 1   
    39    15    19 1   
    40    15    20 1   
    41    16    17 1   
    42    16    43 1   
    43    17    18 1   
    44    17    44 1   
    45    17    45 1   
    46    18    19 1   
    47    18    46 1   
    48    18    47 1   
    49    19    22 1   
    50    19    48 1   
    51    20    49 1   
    52    20    50 1   
    53    20    51 1   
    54    21    52 1   
    55    21    53 1   
    56    21    54 1   
    57    22    23 1   
    58    23    55 1   
    59    23    56 1   
    60    23    57 1   
@<TRIPOS>SUBSTRUCTURE
     1 P9N         1 TEMP              0 ****  ****    0 ROOT
