@<TRIPOS>MOLECULE
P9O
   42    45     1     0     0
SMALL
abcg2


@<TRIPOS>ATOM
      1 N1           6.7530    -0.3770    17.6070 nb         1 P9O      -0.649000
      2 C4           9.9860     0.7620    24.2620 c6         1 P9O       0.159600
      3 C5           9.6670    -0.6230    23.7390 c6         1 P9O      -0.107400
      4 C6          10.3570    -0.8480    22.3810 c6         1 P9O      -0.083400
      5 C7           9.6010    -0.0910    21.2860 c          1 P9O       0.596100
      6 C8           7.6300    -0.2080    19.8270 ca         1 P9O      -0.093000
      7 C10          5.9440     0.6430    17.8960 ca         1 P9O       0.335900
      8 C13          4.6870     2.5970    20.8750 c6         1 P9O       0.150800
      9 C15          6.7830     0.8610    20.1300 ca         1 P9O      -0.061300
     10 C17         12.7260    -0.8630    21.5290 ca         1 P9O      -0.054000
     11 O1           9.9090     1.0380    20.9240 o          1 P9O      -0.568100
     12 O           11.4020     0.9490    24.4400 os         1 P9O      -0.345100
     13 C16         11.7950    -0.4060    22.4610 ca         1 P9O      -0.143300
     14 C3          12.2240     0.4620    23.4710 ca         1 P9O       0.162100
     15 C2          13.5640     0.8490    23.5430 ca         1 P9O      -0.135000
     16 C1          14.4810     0.3920    22.6120 ca         1 P9O      -0.061000
     17 C           14.0490    -0.4650    21.6060 ca         1 P9O       0.090000
     18 CL          15.2000    -1.0530    20.4180 cl         1 P9O      -0.213000
     19 N            8.5190    -0.7490    20.7980 ns         1 P9O      -0.174000
     20 C14          6.7470     1.4760    21.5130 c6         1 P9O       0.194100
     21 N2           5.9300     2.6780    21.6440 n7         1 P9O      -0.847400
     22 C12          4.9470     2.4250    19.3790 c6         1 P9O      -0.067100
     23 C11          5.9150     1.2980    19.1260 ca         1 P9O      -0.121300
     24 C9           7.5860    -0.7850    18.5650 ca         1 P9O       0.324900
     25 H2           9.5490     0.9290    25.2440 h1         1 P9O       0.067200
     26 H3           8.5860    -0.7390    23.6500 hc         1 P9O       0.063700
     27 H4          10.0250    -1.3730    24.4470 hc         1 P9O       0.063700
     28 H5          10.3240    -1.9130    22.1420 hc         1 P9O       0.068700
     29 H6           5.2660     0.9610    17.1100 h4         1 P9O       0.021100
     30 H7           4.0990     3.4980    21.0570 h1         1 P9O       0.058700
     31 H8           4.1120     1.7460    21.2520 h1         1 P9O       0.058700
     32 H9          12.4050    -1.5370    20.7450 ha         1 P9O       0.125000
     33 H10         13.8740     1.5170    24.3370 ha         1 P9O       0.134000
     34 H11         15.5170     0.6970    22.6670 ha         1 P9O       0.133000
     35 H12          8.3900    -1.7160    21.0590 hn         1 P9O       0.156000
     36 H13          6.3770     0.7100    22.2040 h1         1 P9O       0.068200
     37 H14          7.7590     1.7180    21.8320 h1         1 P9O       0.068200
     38 H15          6.4650     3.4780    21.3200 hn         1 P9O       0.415000
     39 H17          5.3610     3.3590    18.9820 hc         1 P9O       0.058200
     40 H18          4.0160     2.2400    18.8380 hc         1 P9O       0.058200
     41 H19          8.2510    -1.6110    18.3320 h4         1 P9O       0.023100
     42 H1           9.6210     1.5330    23.5780 h1         1 P9O       0.067200
@<TRIPOS>BOND
     1     1     7 ar  
     2     1    24 ar  
     3     2     3 1   
     4     2    12 1   
     5     2    25 1   
     6     2    42 1   
     7     3     4 1   
     8     3    26 1   
     9     3    27 1   
    10     4     5 1   
    11     4    13 1   
    12     4    28 1   
    13     5    11 2   
    14     5    19 1   
    15     6     9 ar  
    16     6    19 1   
    17     6    24 ar  
    18     7    23 ar  
    19     7    29 1   
    20     8    21 1   
    21     8    22 1   
    22     8    30 1   
    23     8    31 1   
    24     9    20 1   
    25     9    23 ar  
    26    10    13 ar  
    27    10    17 ar  
    28    10    32 1   
    29    12    14 1   
    30    13    14 ar  
    31    14    15 ar  
    32    15    16 ar  
    33    15    33 1   
    34    16    17 ar  
    35    16    34 1   
    36    17    18 1   
    37    19    35 1   
    38    20    21 1   
    39    20    36 1   
    40    20    37 1   
    41    21    38 1   
    42    22    23 1   
    43    22    39 1   
    44    22    40 1   
    45    24    41 1   
@<TRIPOS>SUBSTRUCTURE
     1 P9O         1 TEMP              0 ****  ****    0 ROOT
