@<TRIPOS>MOLECULE
P9O
   42    45     1     0     0
SMALL
No Charge or Current Charge


@<TRIPOS>ATOM
      1 N1           6.7940    -0.4040    17.5610 nb         1 P9O      -0.649000
      2 C4          10.1730     0.6650    24.5400 c6         1 P9O       0.159600
      3 C5           9.7420    -0.6560    23.8710 c6         1 P9O      -0.107400
      4 C6          10.3910    -0.7640    22.4680 c6         1 P9O      -0.083400
      5 C7           9.6060     0.0570    21.4140 c          1 P9O       0.596100
      6 C8           7.6350    -0.1490    19.8310 ca         1 P9O      -0.093000
      7 C10          5.9080     0.5850    17.8120 ca         1 P9O       0.335900
      8 C13          4.5340     2.6880    20.7450 c6         1 P9O       0.150800
      9 C15          6.7010     0.8820    20.0970 ca         1 P9O      -0.061300
     10 C17         12.7320    -0.7700    21.4550 ca         1 P9O      -0.054000
     11 O1           9.9290     1.1970    21.0960 o          1 P9O      -0.568100
     12 O           11.6100     0.7280    24.6630 os         1 P9O      -0.345100
     13 C16         11.8780    -0.3850    22.5080 ca         1 P9O      -0.143300
     14 C3          12.4050     0.3470    23.6000 ca         1 P9O       0.162100
     15 C2          13.7710     0.6680    23.6370 ca         1 P9O      -0.135000
     16 C1          14.6180     0.2830    22.5820 ca         1 P9O      -0.061000
     17 C           14.0960    -0.4340    21.4920 ca         1 P9O       0.090000
     18 Cl          15.1550    -0.9180    20.1730 cl         1 P9O      -0.213000
     19 N            8.5550    -0.6140    20.8080 ns         1 P9O      -0.174000
     20 C14          6.5740     1.5390    21.4870 c6         1 P9O       0.194100
     21 N2           5.8280     2.8220    21.4470 n7         1 P9O      -0.847400
     22 C12          4.7660     2.3440    19.2580 c6         1 P9O      -0.067100
     23 C11          5.8150     1.2430    19.0540 ca         1 P9O      -0.121300
     24 C9           7.6320    -0.7600    18.5600 ca         1 P9O       0.324900
     25 H2           9.7240     0.7550    25.5390 h1         1 P9O       0.067200
     26 H3           8.6460    -0.7160    23.8060 hc         1 P9O       0.063700
     27 H4          10.0660    -1.4980    24.5000 hc         1 P9O       0.063700
     28 H5          10.2670    -1.8200    22.1910 hc         1 P9O       0.068700
     29 H6           5.2420     0.8520    16.9920 h4         1 P9O       0.021100
     30 H7           3.9630     3.6260    20.8210 h1         1 P9O       0.058700
     31 H8           3.9350     1.8960    21.2200 h1         1 P9O       0.058700
     32 H9          12.3420    -1.3300    20.6080 ha         1 P9O       0.125000
     33 H10         14.1730     1.2190    24.4830 ha         1 P9O       0.134000
     34 H11         15.6750     0.5360    22.6090 ha         1 P9O       0.133000
     35 H12          8.4270    -1.5760    21.0980 hn         1 P9O       0.156000
     36 H13          6.0580     0.8360    22.1570 h1         1 P9O       0.068200
     37 H14          7.5670     1.7250    21.9170 h1         1 P9O       0.068200
     38 H15          6.3960     3.5050    20.9320 hn         1 P9O       0.415000
     39 H17          5.0930     3.2480    18.7250 hc         1 P9O       0.058200
     40 H18          3.8120     2.0480    18.8010 hc         1 P9O       0.058200
     41 H19          8.3330    -1.5620    18.3310 h4         1 P9O       0.023100
     42 H1           9.8310     1.5200    23.9380 h1         1 P9O       0.067200
@<TRIPOS>BOND
     1     1     7 ar  
     2     1    24 ar  
     3     2     3 1   
     4     2    12 1   
     5     2    25 1   
     6     2    42 1   
     7     3     4 1   
     8     3    26 1   
     9     3    27 1   
    10     4     5 1   
    11     4    13 1   
    12     4    28 1   
    13     5    11 2   
    14     5    19 1   
    15     6     9 ar  
    16     6    19 1   
    17     6    24 ar  
    18     7    23 ar  
    19     7    29 1   
    20     8    21 1   
    21     8    22 1   
    22     8    30 1   
    23     8    31 1   
    24     9    20 1   
    25     9    23 ar  
    26    10    13 ar  
    27    10    17 ar  
    28    10    32 1   
    29    12    14 1   
    30    13    14 ar  
    31    14    15 ar  
    32    15    16 ar  
    33    15    33 1   
    34    16    17 ar  
    35    16    34 1   
    36    17    18 1   
    37    19    35 1   
    38    20    21 1   
    39    20    36 1   
    40    20    37 1   
    41    21    38 1   
    42    22    23 1   
    43    22    39 1   
    44    22    40 1   
    45    24    41 1   
@<TRIPOS>SUBSTRUCTURE
     1 P9O         1 TEMP              0 ****  ****    0 ROOT
