@<TRIPOS>MOLECULE
P9P
   15    15     1     0     0
SMALL
No Charge or Current Charge


@<TRIPOS>ATOM
      1 Cl1         -2.4150    -1.6810     0.0600 cl         1 P9P      -0.153000
      2 C02         -1.1590    -0.4400     0.0570 ca         1 P9P       0.054000
      3 C03          0.1880    -0.8330    -0.0160 ca         1 P9P       0.000000
      4 C04          1.2190     0.1370    -0.0200 ca         1 P9P      -0.220200
      5 N05          2.6530    -0.2820    -0.0970 no         1 P9P       0.703200
      6 O06          2.9050    -1.4930    -0.1570 o          1 P9P      -0.399500
      7 O07          3.5220     0.5990    -0.0980 o          1 P9P      -0.399500
      8 C08          0.8750     1.5070     0.0500 ca         1 P9P       0.005000
      9 C09         -0.4740     1.8960     0.1230 ca         1 P9P      -0.223000
     10 C10         -1.4930     0.9290     0.1260 ca         1 P9P       0.197100
     11 O11         -2.7980     1.3280     0.1980 oh         1 P9P      -0.498100
     12 H1           0.4190    -1.8960    -0.0680 ha         1 P9P       0.167000
     13 H2           1.6470     2.2780     0.0490 ha         1 P9P       0.155000
     14 H3          -0.7190     2.9540     0.1760 ha         1 P9P       0.131000
     15 H4          -2.8210     2.3080     0.2380 ho         1 P9P       0.481000
@<TRIPOS>BOND
     1     1     2 1   
     2     2     3 ar  
     3     2    10 ar  
     4     3     4 ar  
     5     3    12 1   
     6     4     5 1   
     7     4     8 ar  
     8     5     6 1   
     9     5     7 1   
    10     8     9 ar  
    11     8    13 1   
    12     9    10 ar  
    13     9    14 1   
    14    10    11 1   
    15    11    15 1   
@<TRIPOS>SUBSTRUCTURE
     1 P9P         1 TEMP              0 ****  ****    0 ROOT
