@<TRIPOS>MOLECULE
P9P
   15    15     1     0     0
SMALL
bcc


@<TRIPOS>ATOM
      1 CL1         -2.3790    -1.5880     0.0660 cl         1 P9P      -0.061400
      2 C02         -1.1160    -0.4160     0.0580 ca         1 P9P      -0.037600
      3 C03          0.1990    -0.8190    -0.0140 ca         1 P9P      -0.018000
      4 C04          1.1970     0.1480    -0.0180 ca         1 P9P      -0.220200
      5 N05          2.5790    -0.2700    -0.0940 no         1 P9P       0.323200
      6 O06          2.8150    -1.4540    -0.1620 o          1 P9P      -0.209500
      7 O07          3.4330     0.5870    -0.0870 o          1 P9P      -0.209500
      8 C08          0.8900     1.4990     0.0490 ca         1 P9P      -0.013000
      9 C09         -0.4320     1.8880     0.1200 ca         1 P9P      -0.241000
     10 C10         -1.4560     0.9410     0.1260 ca         1 P9P       0.197100
     11 O11         -2.7430     1.2580     0.1930 oh         1 P9P      -0.459100
     12 H1           0.4330    -1.8720    -0.0680 ha         1 P9P       0.185000
     13 H2           1.6640     2.2520     0.0480 ha         1 P9P       0.173000
     14 H3          -0.6740     2.9420     0.1730 ha         1 P9P       0.149000
     15 H4          -2.8620     2.2160     0.2300 ho         1 P9P       0.442000
@<TRIPOS>BOND
     1     1     2 1   
     2     2     3 ar  
     3     2    10 ar  
     4     3     4 ar  
     5     3    12 1   
     6     4     5 1   
     7     4     8 ar  
     8     5     6 1   
     9     5     7 1   
    10     8     9 ar  
    11     8    13 1   
    12     9    10 ar  
    13     9    14 1   
    14    10    11 1   
    15    11    15 1   
@<TRIPOS>SUBSTRUCTURE
     1 P9P         1 TEMP              0 ****  ****    0 ROOT
