@<TRIPOS>MOLECULE
P9S
   24    23     1     0     0
SMALL
No Charge or Current Charge


@<TRIPOS>ATOM
      1 OAK          3.5450   -21.2220   -24.5090 oh         1 P9S      -0.659000
      2 CAI          2.1320   -21.3370   -24.2630 c3         1 P9S       0.121600
      3 CAH          1.3170   -21.2860   -25.5900 c3         1 P9S       0.187300
      4 OAJ         -0.0790   -21.5080   -25.3200 oh         1 P9S      -0.631000
      5 CAG          1.4960   -19.9590   -26.3810 c3         1 P9S       0.050600
      6 SAF          0.8990   -18.4540   -25.4590 ss         1 P9S      -0.403000
      7 CB           1.5210   -17.1060   -26.5710 c3         1 P9S       0.102600
      8 CA           0.7200   -17.0150   -27.8980 c3         1 P9S       0.017500
      9 N            1.4280   -16.1240   -28.8960 n8         1 P9S      -0.992200
     10 C           -0.8030   -16.6770   -27.6130 c          1 P9S       0.733000
     11 O           -1.0780   -15.7010   -26.9240 o          1 P9S      -0.727000
     12 H1           3.9940   -21.2420   -23.6340 ho         1 P9S       0.437000
     13 H2           1.7980   -20.5290   -23.5980 h1         1 P9S       0.026700
     14 H3           1.9230   -22.2880   -23.7550 h1         1 P9S       0.026700
     15 H4           1.6860   -22.0970   -26.2320 h1         1 P9S       0.023700
     16 H5          -0.1590   -22.4130   -24.9500 ho         1 P9S       0.423000
     17 H6           2.5580   -19.8260   -26.6210 h1         1 P9S       0.063700
     18 H7           0.9480   -20.0350   -27.3290 h1         1 P9S       0.063700
     19 H8           2.5800   -17.3000   -26.7870 h1         1 P9S       0.054700
     20 H9           1.4580   -16.1490   -26.0370 h1         1 P9S       0.054700
     21 H10          0.7350   -18.0150   -28.3520 h1         1 P9S       0.003700
     22 H11          2.3500   -16.5190   -29.1170 hn         1 P9S       0.374500
     23 H12          0.9260   -16.1570   -29.7920 hn         1 P9S       0.374500
     24 O1          -1.6570   -17.3480   -28.1810 o          1 P9S      -0.727000
@<TRIPOS>BOND
     1     1     2 1   
     2     1    12 1   
     3     2     3 1   
     4     2    13 1   
     5     2    14 1   
     6     3     4 1   
     7     3     5 1   
     8     3    15 1   
     9     4    16 1   
    10     5     6 1   
    11     5    17 1   
    12     5    18 1   
    13     6     7 1   
    14     7     8 1   
    15     7    19 1   
    16     7    20 1   
    17     8     9 1   
    18     8    10 1   
    19     8    21 1   
    20     9    22 1   
    21     9    23 1   
    22    10    11 1   
    23    10    24 1   
@<TRIPOS>SUBSTRUCTURE
     1 P9S         1 TEMP              0 ****  ****    0 ROOT
