@<TRIPOS>MOLECULE
P9S
   24    23     1     0     0
SMALL
bcc


@<TRIPOS>ATOM
      1 OAK          3.5630   -21.0160   -24.6580 oh         1 P9S      -0.596800
      2 CAI          2.2240   -21.1880   -24.2550 c3         1 P9S       0.098400
      3 CAH          1.3600   -21.3490   -25.5020 c3         1 P9S       0.164100
      4 OAJ          0.0160   -21.5820   -25.1450 oh         1 P9S      -0.568800
      5 CAG          1.3870   -20.1400   -26.4210 c3         1 P9S       0.002700
      6 SAF          0.5980   -18.6920   -25.6470 ss         1 P9S      -0.307200
      7 CB           1.3670   -17.3580   -26.6070 c3         1 P9S       0.054700
      8 CA           0.6660   -17.0890   -27.9270 c3         1 P9S       0.017500
      9 N            1.5090   -16.2050   -28.7340 n8         1 P9S      -0.881800
     10 C           -0.7140   -16.4000   -27.7630 c          1 P9S       0.943600
     11 O           -1.0840   -16.0850   -26.6190 o          1 P9S      -0.832300
     12 H1           4.1010   -20.8960   -23.8720 ho         1 P9S       0.398000
     13 H2           1.8590   -20.3380   -23.6660 h1         1 P9S       0.026700
     14 H3           2.1040   -22.0880   -23.6350 h1         1 P9S       0.026700
     15 H4           1.7640   -22.1930   -26.0810 h1         1 P9S       0.023700
     16 H5          -0.0310   -22.3950   -24.6310 ho         1 P9S       0.384000
     17 H6           2.4220   -19.8920   -26.6610 h1         1 P9S       0.063700
     18 H7           0.8820   -20.3820   -27.3570 h1         1 P9S       0.063700
     19 H8           2.4150   -17.6280   -26.7670 h1         1 P9S       0.054700
     20 H9           1.3520   -16.4680   -25.9800 h1         1 P9S       0.054700
     21 H10          0.4930   -18.0570   -28.4260 h1         1 P9S       0.003700
     22 H11          2.3220   -16.7150   -29.0570 hn         1 P9S       0.319300
     23 H12          0.9930   -15.9470   -29.5660 hn         1 P9S       0.319300
     24 O1          -1.3310   -16.2050   -28.8320 o          1 P9S      -0.832300
@<TRIPOS>BOND
     1     1     2 1   
     2     1    12 1   
     3     2     3 1   
     4     2    13 1   
     5     2    14 1   
     6     3     4 1   
     7     3     5 1   
     8     3    15 1   
     9     4    16 1   
    10     5     6 1   
    11     5    17 1   
    12     5    18 1   
    13     6     7 1   
    14     7     8 1   
    15     7    19 1   
    16     7    20 1   
    17     8     9 1   
    18     8    10 1   
    19     8    21 1   
    20     9    22 1   
    21     9    23 1   
    22    10    11 1   
    23    10    24 1   
@<TRIPOS>SUBSTRUCTURE
     1 P9S         1 TEMP              0 ****  ****    0 ROOT
