@<TRIPOS>MOLECULE
P9T
   23    24     1     0     0
SMALL
No Charge or Current Charge


@<TRIPOS>ATOM
      1 C02         -0.2660    -2.6250     0.7460 c          1 P9T       0.680300
      2 C03          0.7380    -1.5730     0.8290 cc         1 P9T      -0.423200
      3 C04          0.4810    -0.2520     0.5510 cd         1 P9T       0.158600
      4 C05          1.6210     0.7210     0.7070 c3         1 P9T      -0.343200
      5 C10         -0.9030     0.1040     0.1540 ca         1 P9T      -0.143800
      6 C11         -1.3440     1.4170    -0.1710 ca         1 P9T       0.282000
      7 C13         -2.6770     1.6610    -0.5350 ca         1 P9T      -0.274000
      8 C14         -3.5930     0.6110    -0.5890 ca         1 P9T       0.198000
      9 C16         -3.1860    -0.6870    -0.2790 ca         1 P9T      -0.229000
     10 C17         -1.8570    -0.9360     0.0870 ca         1 P9T       0.207100
     11 F12         -0.5160     2.4820    -0.1410 f          1 P9T      -0.138000
     12 F15         -4.8730     0.8510    -0.9400 f          1 P9T      -0.203000
     13 O01         -0.0090    -3.7930     0.9980 o          1 P9T      -0.571000
     14 O07          1.6950     1.1050    -1.9880 o          1 P9T      -0.897833
     15 O08          3.2510     2.4130    -0.6210 o          1 P9T      -0.897833
     16 O09          3.6300     0.0220    -0.9550 o          1 P9T      -0.897833
     17 O18         -1.5160    -2.2310     0.3780 os         1 P9T      -0.371200
     18 P06          2.5970     1.0850    -0.8020 p5         1 P9T       1.248500
     19 H1           1.7200    -1.9160     1.1270 ha         1 P9T       0.254000
     20 H2           1.2960     1.6650     1.1500 hc         1 P9T       0.052200
     21 H3           2.3570     0.3290     1.4170 hc         1 P9T       0.052200
     22 H4          -2.9950     2.6700    -0.7780 ha         1 P9T       0.128000
     23 H5          -3.9000    -1.5040    -0.3220 ha         1 P9T       0.129000
@<TRIPOS>BOND
     1     1     2 1   
     2     1    13 2   
     3     1    17 1   
     4     2     3 2   
     5     2    19 1   
     6     3     4 1   
     7     3     5 1   
     8     4    18 1   
     9     4    20 1   
    10     4    21 1   
    11     5     6 ar  
    12     5    10 ar  
    13     6     7 ar  
    14     6    11 1   
    15     7     8 ar  
    16     7    22 1   
    17     8     9 ar  
    18     8    12 1   
    19     9    10 ar  
    20     9    23 1   
    21    10    17 1   
    22    14    18 1   
    23    15    18 1   
    24    16    18 1   
@<TRIPOS>SUBSTRUCTURE
     1 P9T         1 TEMP              0 ****  ****    0 ROOT
