@<TRIPOS>MOLECULE
P9T
   23    24     1     0     0
SMALL
bcc


@<TRIPOS>ATOM
      1 C02         -0.1550    -2.5010     0.5480 c          1 P9T       0.755800
      2 C03          0.7810    -1.4290     0.6450 cc         1 P9T      -0.373200
      3 C04          0.4510    -0.1190     0.4930 cd         1 P9T       0.158600
      4 C05          1.5180     0.8850     0.6930 c3         1 P9T      -0.185400
      5 C10         -0.9280     0.1780     0.1420 ca         1 P9T      -0.143800
      6 C11         -1.4720     1.4400    -0.1320 ca         1 P9T       0.246900
      7 C13         -2.8000     1.6540    -0.4150 ca         1 P9T      -0.292000
      8 C14         -3.6340     0.5500    -0.4500 ca         1 P9T       0.162900
      9 C16         -3.1850    -0.7280    -0.2220 ca         1 P9T      -0.247000
     10 C17         -1.8360    -0.8900     0.0670 ca         1 P9T       0.207100
     11 F12         -0.6870     2.5130    -0.1310 f          1 P9T      -0.102900
     12 F15         -4.9250     0.7400    -0.7250 f          1 P9T      -0.167900
     13 O01          0.0840    -3.6860     0.6300 o          1 P9T      -0.646500
     14 O07          1.9820     0.7620    -2.0220 o          1 P9T      -0.897833
     15 O08          3.6060     2.1000    -0.5570 o          1 P9T      -0.897833
     16 O09          3.6170    -0.4520    -0.4550 o          1 P9T      -0.897833
     17 O18         -1.4430    -2.1610     0.2760 os         1 P9T      -0.371200
     18 P06          2.7960     0.8080    -0.7240 p5         1 P9T       1.090700
     19 H1           1.8020    -1.6830     0.8550 ha         1 P9T       0.204000
     20 H2           1.1500     1.9020     0.7680 hc         1 P9T       0.052200
     21 H3           2.0510     0.6650     1.6200 hc         1 P9T       0.052200
     22 H4          -3.1700     2.6510    -0.6130 ha         1 P9T       0.146000
     23 H5          -3.8510    -1.5790    -0.2680 ha         1 P9T       0.147000
@<TRIPOS>BOND
     1     1     2 1   
     2     1    13 2   
     3     1    17 1   
     4     2     3 2   
     5     2    19 1   
     6     3     4 1   
     7     3     5 1   
     8     4    18 1   
     9     4    20 1   
    10     4    21 1   
    11     5     6 ar  
    12     5    10 ar  
    13     6     7 ar  
    14     6    11 1   
    15     7     8 ar  
    16     7    22 1   
    17     8     9 ar  
    18     8    12 1   
    19     9    10 ar  
    20     9    23 1   
    21    10    17 1   
    22    14    18 1   
    23    15    18 1   
    24    16    18 1   
@<TRIPOS>SUBSTRUCTURE
     1 P9T         1 TEMP              0 ****  ****    0 ROOT
