@<TRIPOS>MOLECULE
P9V
   30    30     1     0     0
SMALL
bcc


@<TRIPOS>ATOM
      1 C1         -45.4320    40.7510    -4.0830 c3         1 P9V      -0.005000
      2 C3         -42.0440    40.0160    -5.2370 c6         1 P9V       0.145500
      3 C4         -41.9400    41.2920    -6.0830 c6         1 P9V       0.110100
      4 C5         -41.0050    41.1170    -7.2790 c6         1 P9V       0.159100
      5 C6         -39.6430    40.6320    -6.8130 c6         1 P9V       0.150100
      6 C7         -39.8040    39.3910    -5.9410 c6         1 P9V       0.118800
      7 C16        -42.7840    38.8410    -5.8960 c3         1 P9V      -0.094400
      8 C17        -44.3060    38.9040    -5.9180 c3         1 P9V       0.024700
      9 N2         -40.6820    39.6950    -4.8280 n7         1 P9V      -0.810200
     10 O10        -38.8580    40.3730    -7.9530 oh         1 P9V      -0.578800
     11 O12        -43.1790    41.7280    -6.6030 oh         1 P9V      -0.607800
     12 O8         -40.8350    42.3340    -7.9670 oh         1 P9V      -0.584800
     13 S18        -45.0980    38.9850    -4.2790 ss         1 P9V      -0.355200
     14 H1         -46.0900    40.8580    -3.2220 h1         1 P9V       0.057367
     15 H2         -44.5280    41.3270    -3.8930 h1         1 P9V       0.057367
     16 H3         -45.9460    41.1500    -4.9560 h1         1 P9V       0.057367
     17 H4         -42.5840    40.2680    -4.3170 h1         1 P9V       0.067700
     18 H5         -41.5040    42.0670    -5.4380 h1         1 P9V       0.056700
     19 H6         -41.4310    40.3550    -7.9510 h1         1 P9V       0.050700
     20 H7         -39.1930    41.4220    -6.1930 h1         1 P9V       0.053700
     21 H8         -40.1450    38.5520    -6.5660 h1         1 P9V       0.040200
     22 H9         -38.8270    39.1060    -5.5420 h1         1 P9V       0.040200
     23 H10        -42.4930    37.9350    -5.3560 hc         1 P9V       0.049200
     24 H11        -42.4510    38.6860    -6.9260 hc         1 P9V       0.049200
     25 H12        -44.6750    39.7330    -6.5180 h1         1 P9V       0.074700
     26 H13        -44.6860    37.9890    -6.3770 h1         1 P9V       0.074700
     27 H14        -40.6920    38.9270    -4.1700 hn         1 P9V       0.370800
     28 H16        -37.9650    40.1650    -7.6610 ho         1 P9V       0.403000
     29 H17        -43.6590    42.1960    -5.9140 ho         1 P9V       0.408000
     30 H18        -41.7120    42.6840    -8.1540 ho         1 P9V       0.415000
@<TRIPOS>BOND
     1     1    13 1   
     2     1    14 1   
     3     1    15 1   
     4     1    16 1   
     5     2     3 1   
     6     2     7 1   
     7     2     9 1   
     8     2    17 1   
     9     3     4 1   
    10     3    11 1   
    11     3    18 1   
    12     4     5 1   
    13     4    12 1   
    14     4    19 1   
    15     5     6 1   
    16     5    10 1   
    17     5    20 1   
    18     6     9 1   
    19     6    21 1   
    20     6    22 1   
    21     7     8 1   
    22     7    23 1   
    23     7    24 1   
    24     8    13 1   
    25     8    25 1   
    26     8    26 1   
    27     9    27 1   
    28    10    28 1   
    29    11    29 1   
    30    12    30 1   
@<TRIPOS>SUBSTRUCTURE
     1 P9V         1 TEMP              0 ****  ****    0 ROOT
