@<TRIPOS>MOLECULE
P9V
   30    30     1     0     0
SMALL
No Charge or Current Charge


@<TRIPOS>ATOM
      1 C1         -45.5990    40.6560    -4.0130 c3         1 P9V       0.042900
      2 C3         -42.0330    40.0800    -5.2310 c6         1 P9V       0.145500
      3 C4         -41.9050    41.3590    -6.1410 c6         1 P9V       0.133300
      4 C5         -40.9680    41.0950    -7.3620 c6         1 P9V       0.182300
      5 C6         -39.5650    40.6040    -6.8710 c6         1 P9V       0.173300
      6 C7         -39.7310    39.3740    -5.9230 c6         1 P9V       0.118800
      7 C16        -42.7970    38.8590    -5.8570 c3         1 P9V      -0.094400
      8 C17        -44.3390    38.9560    -5.9270 c3         1 P9V       0.072600
      9 N2         -40.6780    39.6320    -4.8000 n7         1 P9V      -0.865400
     10 O10        -38.7040    40.2630    -7.9810 oh         1 P9V      -0.701000
     11 O12        -43.1790    41.8710    -6.5920 oh         1 P9V      -0.730000
     12 O8         -40.8750    42.3030    -8.1430 oh         1 P9V      -0.647000
     13 S18        -45.1030    38.8870    -4.2370 ss         1 P9V      -0.451000
     14 H1         -46.1270    40.7730    -3.0580 h1         1 P9V       0.057367
     15 H2         -44.7100    41.2990    -4.0090 h1         1 P9V       0.057367
     16 H3         -46.2650    40.9640    -4.8290 h1         1 P9V       0.057367
     17 H4         -42.5790    40.3690    -4.3210 h1         1 P9V       0.067700
     18 H5         -41.4120    42.1290    -5.5280 h1         1 P9V       0.056700
     19 H6         -41.4140    40.3000    -7.9760 h1         1 P9V       0.050700
     20 H7         -39.1120    41.4190    -6.2860 h1         1 P9V       0.053700
     21 H8         -40.0820    38.5100    -6.5060 h1         1 P9V       0.040200
     22 H9         -38.7510    39.1050    -5.5040 h1         1 P9V       0.040200
     23 H10        -42.5650    37.9520    -5.2860 hc         1 P9V       0.049200
     24 H11        -42.4310    38.6630    -6.8710 hc         1 P9V       0.049200
     25 H12        -44.6610    39.8610    -6.4560 h1         1 P9V       0.074700
     26 H13        -44.7140    38.0960    -6.4980 h1         1 P9V       0.074700
     27 H14        -40.7690    38.7830    -4.2260 hn         1 P9V       0.426000
     28 H16        -37.7840    40.2350    -7.6300 ho         1 P9V       0.502000
     29 H17        -43.5520    42.4100    -5.8560 ho         1 P9V       0.507000
     30 H18        -41.7870    42.6730    -8.1140 ho         1 P9V       0.454000
@<TRIPOS>BOND
     1     1    13 1   
     2     1    14 1   
     3     1    15 1   
     4     1    16 1   
     5     2     3 1   
     6     2     7 1   
     7     2     9 1   
     8     2    17 1   
     9     3     4 1   
    10     3    11 1   
    11     3    18 1   
    12     4     5 1   
    13     4    12 1   
    14     4    19 1   
    15     5     6 1   
    16     5    10 1   
    17     5    20 1   
    18     6     9 1   
    19     6    21 1   
    20     6    22 1   
    21     7     8 1   
    22     7    23 1   
    23     7    24 1   
    24     8    13 1   
    25     8    25 1   
    26     8    26 1   
    27     9    27 1   
    28    10    28 1   
    29    11    29 1   
    30    12    30 1   
@<TRIPOS>SUBSTRUCTURE
     1 P9V         1 TEMP              0 ****  ****    0 ROOT
