@<TRIPOS>MOLECULE
P9X
   25    26     1     0     0
SMALL
abcg2


@<TRIPOS>ATOM
      1 C1         147.6900   130.7740   104.2810 c5         1 P9X       0.061300
      2 C2         147.0010   129.4000   104.4810 c          1 P9X       0.572300
      3 C4         146.4600   130.7680   106.1950 ce         1 P9X       0.102900
      4 C5         145.8970   131.3860   107.4770 c          1 P9X       0.720200
      5 C6         149.1970   130.6260   104.3220 ca         1 P9X      -0.057300
      6 C9         151.9710   130.2500   104.3970 ca         1 P9X      -0.122000
      7 O3         146.3190   132.5220   107.7760 o          1 P9X      -0.679500
      8 C10        151.2920   130.6910   105.5280 ca         1 P9X      -0.124000
      9 C          147.1560   131.4690   103.0360 c3         1 P9X      -0.070100
     10 O          147.0970   128.4670   103.6960 o          1 P9X      -0.581100
     11 C11        149.9140   130.8750   105.4930 ca         1 P9X      -0.086500
     12 C3         146.2710   129.5140   105.7120 cf         1 P9X      -0.474200
     13 C7         149.8830   130.1790   103.1910 ca         1 P9X      -0.086500
     14 C8         151.2600   129.9930   103.2290 ca         1 P9X      -0.124000
     15 O1         147.2520   131.5420   105.4360 os         1 P9X      -0.295100
     16 O2         145.0750   130.6660   108.0850 o          1 P9X      -0.679500
     17 H1         153.0440   130.1080   104.4240 ha         1 P9X       0.097000
     18 H2         151.8340   130.8940   106.4430 ha         1 P9X       0.101500
     19 H3         146.0770   131.5950   103.1210 hc         1 P9X       0.044033
     20 H4         147.6260   132.4450   102.9200 hc         1 P9X       0.044033
     21 H5         147.3650   130.8650   102.1540 hc         1 P9X       0.044033
     22 H6         149.3980   131.2220   106.3760 ha         1 P9X       0.130000
     23 H7         145.6680   128.7490   106.1700 ha         1 P9X       0.229000
     24 H8         149.3460   129.9710   102.2760 ha         1 P9X       0.130000
     25 H9         151.7770   129.6480   102.3420 ha         1 P9X       0.101500
@<TRIPOS>BOND
     1     1     2 1   
     2     1     5 1   
     3     1     9 1   
     4     1    15 1   
     5     2    10 2   
     6     2    12 1   
     7     3     4 1   
     8     3    12 2   
     9     3    15 1   
    10     4     7 1   
    11     4    16 1   
    12     5    11 ar  
    13     5    13 ar  
    14     6     8 ar  
    15     6    14 ar  
    16     6    17 1   
    17     8    11 ar  
    18     8    18 1   
    19     9    19 1   
    20     9    20 1   
    21     9    21 1   
    22    11    22 1   
    23    12    23 1   
    24    13    14 ar  
    25    13    24 1   
    26    14    25 1   
@<TRIPOS>SUBSTRUCTURE
     1 P9X         1 TEMP              0 ****  ****    0 ROOT
