@<TRIPOS>MOLECULE
P9X
   25    26     1     0     0
SMALL
No Charge or Current Charge


@<TRIPOS>ATOM
      1 C1         147.6790   130.6750   104.2760 c5         1 P9X       0.061300
      2 C2         147.0300   129.3180   104.6830 c          1 P9X       0.572300
      3 C4         146.4550   130.9630   106.1990 ce         1 P9X       0.102900
      4 C5         145.8490   131.7160   107.3870 c          1 P9X       0.720200
      5 C6         149.2170   130.5560   104.2860 ca         1 P9X      -0.057300
      6 C9         152.0420   130.3050   104.3840 ca         1 P9X      -0.122000
      7 O3         146.1040   132.9070   107.5290 o          1 P9X      -0.679500
      8 C10        151.2850   130.2130   105.5610 ca         1 P9X      -0.124000
      9 C          147.0510   131.1630   102.9450 c3         1 P9X      -0.070100
     10 O          147.0930   128.2070   104.1710 o          1 P9X      -0.581100
     11 C11        149.8860   130.3360   105.5110 ca         1 P9X      -0.086500
     12 C3         146.2920   129.6580   105.8810 cf         1 P9X      -0.474200
     13 C7         149.9960   130.6410   103.1060 ca         1 P9X      -0.086500
     14 C8         151.3960   130.5180   103.1580 ca         1 P9X      -0.124000
     15 O1         147.2810   131.6420   105.3100 os         1 P9X      -0.295100
     16 O2         145.1260   131.0980   108.1610 o          1 P9X      -0.679500
     17 H1         153.1250   130.2090   104.4220 ha         1 P9X       0.097000
     18 H2         151.7820   130.0450   106.5150 ha         1 P9X       0.101500
     19 H3         145.9680   131.3000   103.0490 hc         1 P9X       0.044033
     20 H4         147.4780   132.1230   102.6320 hc         1 P9X       0.044033
     21 H5         147.2100   130.4390   102.1370 hc         1 P9X       0.044033
     22 H6         149.3180   130.2600   106.4360 ha         1 P9X       0.130000
     23 H7         145.6950   128.9400   106.4400 ha         1 P9X       0.229000
     24 H8         149.5310   130.8010   102.1380 ha         1 P9X       0.130000
     25 H9         151.9800   130.5870   102.2430 ha         1 P9X       0.101500
@<TRIPOS>BOND
     1     1     2 1   
     2     1     5 1   
     3     1     9 1   
     4     1    15 1   
     5     2    10 2   
     6     2    12 1   
     7     3     4 1   
     8     3    12 2   
     9     3    15 1   
    10     4     7 1   
    11     4    16 1   
    12     5    11 ar  
    13     5    13 ar  
    14     6     8 ar  
    15     6    14 ar  
    16     6    17 1   
    17     8    11 ar  
    18     8    18 1   
    19     9    19 1   
    20     9    20 1   
    21     9    21 1   
    22    11    22 1   
    23    12    23 1   
    24    13    14 ar  
    25    13    24 1   
    26    14    25 1   
@<TRIPOS>SUBSTRUCTURE
     1 P9X         1 TEMP              0 ****  ****    0 ROOT
