@<TRIPOS>MOLECULE
P9Y
   29    30     1     0     0
SMALL
No Charge or Current Charge


@<TRIPOS>ATOM
      1 C1           1.2020     8.4520    -7.7520 ca         1 P9Y       0.146100
      2 C2           0.6820     7.3480    -8.4640 ca         1 P9Y      -0.165500
      3 C3           0.3610     9.1840    -6.8970 ca         1 P9Y      -0.165500
      4 C11          5.9190     8.2540    -9.4250 c3         1 P9Y       0.074600
      5 C13          7.6030    10.0780    -9.9780 cc         1 P9Y      -0.234000
      6 C14          8.2510     8.5820    -8.4660 cc         1 P9Y       0.388400
      7 C15          8.8700    10.3530    -9.5320 cd         1 P9Y       0.231900
      8 C5          -0.6710     6.9890    -8.3150 ca         1 P9Y      -0.064500
      9 C6          -0.9910     8.8250    -6.7480 ca         1 P9Y      -0.064500
     10 C7           3.4600     8.1710    -8.7020 c3         1 P9Y       0.166600
     11 C8          -1.5050     7.7270    -7.4580 ca         1 P9Y       0.082000
     12 C9           4.8120     8.8930    -8.5620 c3         1 P9Y      -0.105400
     13 N12          7.2100     8.9460    -9.2960 na         1 P9Y      -0.171500
     14 N16          9.2690     9.4220    -8.5940 nd         1 P9Y      -0.669000
     15 O4           2.5180     8.8510    -7.8560 os         1 P9Y      -0.343100
     16 Cl10        -3.1950     7.2760    -7.2740 cl         1 P9Y      -0.203000
     17 H1           1.3050     6.7610    -9.1330 ha         1 P9Y       0.126000
     18 H2           0.7600    10.0340    -6.3480 ha         1 P9Y       0.126000
     19 H3           5.6170     8.2740   -10.4810 h1         1 P9Y       0.059700
     20 H4           6.0510     7.2040    -9.1340 h1         1 P9Y       0.059700
     21 H6           8.2020     7.7190    -7.8130 h5         1 P9Y       0.052100
     22 H7           9.5160    11.1700    -9.8340 h4         1 P9Y       0.039100
     23 H8          -1.0740     6.1400    -8.8620 ha         1 P9Y       0.130000
     24 H9          -1.6380     9.3950    -6.0860 ha         1 P9Y       0.130000
     25 H10          3.1340     8.2020    -9.7500 h1         1 P9Y       0.036200
     26 H11          3.5700     7.1220    -8.3960 h1         1 P9Y       0.036200
     27 H12          5.1210     8.8780    -7.5100 hc         1 P9Y       0.071700
     28 H13          4.6900     9.9430    -8.8520 hc         1 P9Y       0.071700
     29 H5           6.9810    10.5880   -10.7020 h4         1 P9Y       0.156000
@<TRIPOS>BOND
     1     1     2 ar  
     2     1     3 ar  
     3     1    15 1   
     4     2     8 ar  
     5     2    17 1   
     6     3     9 ar  
     7     3    18 1   
     8     4    12 1   
     9     4    13 1   
    10     4    19 1   
    11     4    20 1   
    12     5     7 2   
    13     5    13 1   
    14     5    29 1   
    15     6    13 1   
    16     6    14 2   
    17     6    21 1   
    18     7    14 1   
    19     7    22 1   
    20     8    11 ar  
    21     8    23 1   
    22     9    11 ar  
    23     9    24 1   
    24    10    12 1   
    25    10    15 1   
    26    10    25 1   
    27    10    26 1   
    28    11    16 1   
    29    12    27 1   
    30    12    28 1   
@<TRIPOS>SUBSTRUCTURE
     1 P9Y         1 TEMP              0 ****  ****    0 ROOT
