@<TRIPOS>MOLECULE
P9Y
   29    30     1     0     0
SMALL
abcg2


@<TRIPOS>ATOM
      1 C1           1.2600     8.4890    -7.7730 ca         1 P9Y       0.146100
      2 C2           0.7880     7.3670    -8.4490 ca         1 P9Y      -0.165500
      3 C3           0.3910     9.2070    -6.9490 ca         1 P9Y      -0.165500
      4 C11          5.8330     8.2680    -9.4120 c3         1 P9Y       0.074600
      5 C13          7.5270    10.0590    -9.9180 cc         1 P9Y      -0.234000
      6 C14          8.1590     8.4910    -8.5390 cc         1 P9Y       0.388400
      7 C15          8.8000    10.2860    -9.4780 cd         1 P9Y       0.231900
      8 C5          -0.5360     6.9710    -8.3010 ca         1 P9Y      -0.064500
      9 C6          -0.9250     8.8120    -6.8020 ca         1 P9Y      -0.064500
     10 C7           3.4530     8.2560    -8.6660 c3         1 P9Y       0.166600
     11 C8          -1.3850     7.6920    -7.4820 ca         1 P9Y       0.082000
     12 C9           4.7830     8.9720    -8.5610 c3         1 P9Y      -0.105400
     13 N12          7.1310     8.9010    -9.3110 na         1 P9Y      -0.171500
     14 N16          9.1850     9.2980    -8.6170 nd         1 P9Y      -0.669000
     15 O4           2.5220     8.9480    -7.8510 os         1 P9Y      -0.343100
     16 CL10        -3.0380     7.1950    -7.3010 cl         1 P9Y      -0.203000
     17 H1           1.4270     6.7840    -9.0980 ha         1 P9Y       0.126000
     18 H2           0.7530    10.0810    -6.4220 ha         1 P9Y       0.126000
     19 H3           5.5360     8.2540   -10.4610 h1         1 P9Y       0.059700
     20 H4           5.9490     7.2310    -9.0970 h1         1 P9Y       0.059700
     21 H6           8.1020     7.5880    -7.9480 h5         1 P9Y       0.052100
     22 H7           9.4560    11.1010    -9.7450 h4         1 P9Y       0.039100
     23 H8          -0.8920     6.0980    -8.8300 ha         1 P9Y       0.130000
     24 H9          -1.5870     9.3760    -6.1590 ha         1 P9Y       0.130000
     25 H10          3.1090     8.2390    -9.7070 h1         1 P9Y       0.036200
     26 H11          3.5550     7.2170    -8.3330 h1         1 P9Y       0.036200
     27 H12          5.1130     8.9910    -7.5200 hc         1 P9Y       0.071700
     28 H13          4.6720    10.0080    -8.8930 hc         1 P9Y       0.071700
     29 H5           6.8880    10.6010   -10.5960 h4         1 P9Y       0.156000
@<TRIPOS>BOND
     1     1     2 ar  
     2     1     3 ar  
     3     1    15 1   
     4     2     8 ar  
     5     2    17 1   
     6     3     9 ar  
     7     3    18 1   
     8     4    12 1   
     9     4    13 1   
    10     4    19 1   
    11     4    20 1   
    12     5     7 2   
    13     5    13 1   
    14     5    29 1   
    15     6    13 1   
    16     6    14 2   
    17     6    21 1   
    18     7    14 1   
    19     7    22 1   
    20     8    11 ar  
    21     8    23 1   
    22     9    11 ar  
    23     9    24 1   
    24    10    12 1   
    25    10    15 1   
    26    10    25 1   
    27    10    26 1   
    28    11    16 1   
    29    12    27 1   
    30    12    28 1   
@<TRIPOS>SUBSTRUCTURE
     1 P9Y         1 TEMP              0 ****  ****    0 ROOT
