@<TRIPOS>MOLECULE
PA1
   25    25     1     0     0
SMALL
abcg2


@<TRIPOS>ATOM
      1 C1           1.5960     0.1790     0.5160 c6         1 PA1       0.387300
      2 O1           1.9410    -1.1660     0.6080 oh         1 PA1      -0.657000
      3 C2           0.5370     0.5010     1.5660 c6         1 PA1       0.110500
      4 N2           0.9850     0.1140     2.8930 n8         1 PA1      -0.981200
      5 C3          -0.7780    -0.2010     1.2260 c6         1 PA1       0.178300
      6 O3          -1.8050     0.1940     2.1100 oh         1 PA1      -0.661000
      7 C4          -1.2080     0.1550    -0.1880 c6         1 PA1       0.145300
      8 O4          -2.3410    -0.6170    -0.5140 oh         1 PA1      -0.703000
      9 C5          -0.0590    -0.1240    -1.1680 c6         1 PA1       0.138300
     10 O5           1.1280     0.5300    -0.7580 os         1 PA1      -0.471000
     11 C6          -0.3870     0.3700    -2.5620 c3         1 PA1       0.168600
     12 O6           0.6410    -0.0170    -3.4410 oh         1 PA1      -0.706000
     13 H1           2.4730     0.8200     0.6730 h2         1 PA1       0.058700
     14 HO1          2.7100    -1.3260     0.0500 ho         1 PA1       0.455000
     15 H2           0.3620     1.5850     1.4800 h1         1 PA1       0.037700
     16 HN21         1.8970     0.5150     3.0760 hn         1 PA1       0.397000
     17 HN22         0.3730     0.5340     3.5820 hn         1 PA1       0.397000
     18 H3          -0.6220    -1.2870     1.2800 h1         1 PA1       0.077700
     19 HO3         -1.7430    -0.3390     2.9080 ho         1 PA1       0.453000
     20 H4          -1.4400     1.2300    -0.2200 h1         1 PA1       0.046700
     21 HO4         -2.8940    -0.1200    -1.1210 ho         1 PA1       0.505000
     22 H5           0.0930    -1.2120    -1.2110 h1         1 PA1       0.074700
     23 H61         -1.3490    -0.0590    -2.8630 h1         1 PA1       0.023200
     24 H62         -0.5140     1.4620    -2.5360 h1         1 PA1       0.023200
     25 HO6          0.3990     0.2710    -4.3260 ho         1 PA1       0.503000
@<TRIPOS>BOND
     1     1     2 1   
     2     1     3 1   
     3     1    10 1   
     4     1    13 1   
     5     2    14 1   
     6     3     4 1   
     7     3     5 1   
     8     3    15 1   
     9     4    16 1   
    10     4    17 1   
    11     5     6 1   
    12     5     7 1   
    13     5    18 1   
    14     6    19 1   
    15     7     8 1   
    16     7     9 1   
    17     7    20 1   
    18     8    21 1   
    19     9    10 1   
    20     9    11 1   
    21     9    22 1   
    22    11    12 1   
    23    11    23 1   
    24    11    24 1   
    25    12    25 1   
@<TRIPOS>SUBSTRUCTURE
     1 PA1         1 TEMP              0 ****  ****    0 ROOT
