@<TRIPOS>MOLECULE
PA1
   25    25     1     0     0
SMALL
No Charge or Current Charge


@<TRIPOS>ATOM
      1 C1           1.5480     0.3130     0.6340 c6         1 PA1       0.387300
      2 O1           1.9840    -1.0430     0.6920 oh         1 PA1      -0.657000
      3 C2           0.3490     0.5900     1.6180 c6         1 PA1       0.110500
      4 N2           0.6310     0.2870     3.0640 n8         1 PA1      -0.981200
      5 C3          -0.9080    -0.1930     1.1440 c6         1 PA1       0.178300
      6 O3          -1.9990     0.0960     2.0330 oh         1 PA1      -0.661000
      7 C4          -1.2520     0.1610    -0.3320 c6         1 PA1       0.145300
      8 O4          -2.4140    -0.5760    -0.7580 oh         1 PA1      -0.703000
      9 C5          -0.0040    -0.1440    -1.2210 c6         1 PA1       0.138300
     10 O5           1.1560     0.5900    -0.7250 os         1 PA1      -0.471000
     11 C6          -0.2320     0.2510    -2.7180 c3         1 PA1       0.168600
     12 O6           0.9250     0.0280    -3.5480 oh         1 PA1      -0.706000
     13 H1           2.3850     0.9760     0.9030 h2         1 PA1       0.058700
     14 HO1          2.6470    -1.1210    -0.0260 ho         1 PA1       0.455000
     15 H2           0.1160     1.6640     1.5660 h1         1 PA1       0.037700
     16 HN21         1.1060    -0.6250     3.1070 hn         1 PA1       0.397000
     17 HN22         1.3520     0.9340     3.4080 hn         1 PA1       0.397000
     18 H3          -0.6730    -1.2680     1.1890 h1         1 PA1       0.077700
     19 HO3         -1.5420     0.2500     2.8950 ho         1 PA1       0.453000
     20 H4          -1.4580     1.2410    -0.3890 h1         1 PA1       0.046700
     21 HO4         -3.0330    -0.5470     0.0110 ho         1 PA1       0.505000
     22 H5           0.2070    -1.2230    -1.1880 h1         1 PA1       0.074700
     23 H61         -1.0800    -0.3290    -3.1040 h1         1 PA1       0.023200
     24 H62         -0.5190     1.3100    -2.7520 h1         1 PA1       0.023200
     25 HO6          0.7030     0.3700    -4.4460 ho         1 PA1       0.503000
@<TRIPOS>BOND
     1     1     2 1   
     2     1     3 1   
     3     1    10 1   
     4     1    13 1   
     5     2    14 1   
     6     3     4 1   
     7     3     5 1   
     8     3    15 1   
     9     4    16 1   
    10     4    17 1   
    11     5     6 1   
    12     5     7 1   
    13     5    18 1   
    14     6    19 1   
    15     7     8 1   
    16     7     9 1   
    17     7    20 1   
    18     8    21 1   
    19     9    10 1   
    20     9    11 1   
    21     9    22 1   
    22    11    12 1   
    23    11    23 1   
    24    11    24 1   
    25    12    25 1   
@<TRIPOS>SUBSTRUCTURE
     1 PA1         1 TEMP              0 ****  ****    0 ROOT
