@<TRIPOS>MOLECULE
PA2
   24    24     1     0     0
SMALL
bcc


@<TRIPOS>ATOM
      1 C1          -1.2950    -0.2520    -0.4510 c6         1 PA2       0.157500
      2 N1          -2.4870     0.2060    -1.1490 n8         1 PA2      -0.852800
      3 C2          -0.0430     0.2630    -1.1540 c6         1 PA2       0.164100
      4 O2          -0.0630    -0.1550    -2.4970 oh         1 PA2      -0.573800
      5 C3           1.2120    -0.2400    -0.4450 c6         1 PA2       0.109100
      6 O3           2.3200     0.2780    -1.1580 oh         1 PA2      -0.604800
      7 C4           1.2250     0.1720     1.0190 c6         1 PA2      -0.145400
      8 C5          -0.0150    -0.3380     1.7540 c6         1 PA2       0.165500
      9 N5          -0.0810     0.0430     3.1590 n8         1 PA2      -0.874800
     10 C6          -1.2690     0.1340     1.0300 c6         1 PA2      -0.114400
     11 H1          -1.2850    -1.3470    -0.5210 h1         1 PA2       0.069700
     12 HN11        -3.3010    -0.1960    -0.7000 hn         1 PA2       0.334800
     13 HN12        -2.5810     1.2090    -1.0260 hn         1 PA2       0.334800
     14 H2          -0.0450     1.3670    -1.0870 h1         1 PA2       0.036700
     15 HO2          0.7950     0.0650    -2.8760 ho         1 PA2       0.413000
     16 H3           1.2070    -1.3400    -0.5030 h1         1 PA2       0.041700
     17 HO3          3.1040    -0.2190    -0.9040 ho         1 PA2       0.410000
     18 H41          1.2670     1.2660     1.0930 hc         1 PA2       0.047700
     19 H42          2.1290    -0.2150     1.5010 hc         1 PA2       0.047700
     20 H5          -0.0000    -1.4340     1.7210 h1         1 PA2       0.061700
     21 HN51         0.7450    -0.2960     3.6390 hn         1 PA2       0.337800
     22 HN52        -0.0380     1.0540     3.2320 hn         1 PA2       0.337800
     23 H61         -2.1540    -0.2800     1.5220 hc         1 PA2       0.049700
     24 H62         -1.3460     1.2260     1.1140 hc         1 PA2       0.049700
@<TRIPOS>BOND
     1     1     2 1   
     2     1     3 1   
     3     1    10 1   
     4     1    11 1   
     5     2    12 1   
     6     2    13 1   
     7     3     4 1   
     8     3     5 1   
     9     3    14 1   
    10     4    15 1   
    11     5     6 1   
    12     5     7 1   
    13     5    16 1   
    14     6    17 1   
    15     7     8 1   
    16     7    18 1   
    17     7    19 1   
    18     8     9 1   
    19     8    10 1   
    20     8    20 1   
    21     9    21 1   
    22     9    22 1   
    23    10    23 1   
    24    10    24 1   
@<TRIPOS>SUBSTRUCTURE
     1 PA2         1 TEMP              0 ****  ****    0 ROOT
