@<TRIPOS>MOLECULE
PA2
   24    24     1     0     0
SMALL
No Charge or Current Charge


@<TRIPOS>ATOM
      1 C1          -1.3460    -0.2780    -0.4770 c6         1 PA2       0.157500
      2 N1          -2.6150     0.2000    -1.0950 n8         1 PA2      -0.963200
      3 C2          -0.0600     0.2620    -1.2040 c6         1 PA2       0.187300
      4 O2          -0.0150    -0.1290    -2.5880 oh         1 PA2      -0.636000
      5 C3           1.2290    -0.2520    -0.4870 c6         1 PA2       0.132300
      6 O3           2.4020     0.2660    -1.1340 oh         1 PA2      -0.667000
      7 C4           1.2290     0.1550     1.0070 c6         1 PA2      -0.145400
      8 C5          -0.0360    -0.3800     1.7200 c6         1 PA2       0.165500
      9 N5          -0.0280     0.0350     3.1310 n8         1 PA2      -0.985200
     10 C6          -1.3280     0.1160     1.0240 c6         1 PA2      -0.114400
     11 H1          -1.3440    -1.3790    -0.5410 h1         1 PA2       0.069700
     12 HN11        -3.3970    -0.0380    -0.4740 hn         1 PA2       0.390000
     13 HN12        -2.6140     1.2250    -1.1030 hn         1 PA2       0.390000
     14 H2          -0.0670     1.3600    -1.1370 h1         1 PA2       0.036700
     15 HO2          0.9290    -0.0140    -2.8400 ho         1 PA2       0.452000
     16 H3           1.2360    -1.3520    -0.5390 h1         1 PA2       0.041700
     17 HO3          3.1770    -0.0510    -0.6170 ho         1 PA2       0.449000
     18 H41          1.2760     1.2510     1.0920 hc         1 PA2       0.047700
     19 H42          2.1280    -0.2410     1.4980 hc         1 PA2       0.047700
     20 H5          -0.0200    -1.4820     1.6960 h1         1 PA2       0.061700
     21 HN51         0.8580    -0.2610     3.5570 hn         1 PA2       0.393000
     22 HN52         0.0200     1.0600     3.1710 hn         1 PA2       0.393000
     23 H61         -2.2040    -0.3110     1.5310 hc         1 PA2       0.049700
     24 H62         -1.4080     1.2090     1.1220 hc         1 PA2       0.049700
@<TRIPOS>BOND
     1     1     2 1   
     2     1     3 1   
     3     1    10 1   
     4     1    11 1   
     5     2    12 1   
     6     2    13 1   
     7     3     4 1   
     8     3     5 1   
     9     3    14 1   
    10     4    15 1   
    11     5     6 1   
    12     5     7 1   
    13     5    16 1   
    14     6    17 1   
    15     7     8 1   
    16     7    18 1   
    17     7    19 1   
    18     8     9 1   
    19     8    10 1   
    20     8    20 1   
    21     9    21 1   
    22     9    22 1   
    23    10    23 1   
    24    10    24 1   
@<TRIPOS>SUBSTRUCTURE
     1 PA2         1 TEMP              0 ****  ****    0 ROOT
