@<TRIPOS>MOLECULE
PA3
   18    18     1     0     0
SMALL
bcc


@<TRIPOS>ATOM
      1 C1          -1.0550     1.2050    -0.2310 c5         1 PA3       0.092400
      2 C2          -1.7520    -0.1430    -0.3380 c5         1 PA3       0.112100
      3 O2          -2.4060    -0.5110     0.8570 oh         1 PA3      -0.586800
      4 C3          -0.5520    -1.0560    -0.5250 c5         1 PA3      -0.107400
      5 C4           0.5320    -0.3930     0.3320 c5         1 PA3       0.141100
      6 O4           0.1310     0.9640     0.5010 os         1 PA3      -0.388600
      7 C5           1.8920    -0.4810    -0.3220 c3         1 PA3       0.127400
      8 O5           2.8620     0.0740     0.5330 oh         1 PA3      -0.581800
      9 H11         -0.8380     1.5900    -1.2360 h1         1 PA3       0.047200
     10 H12         -1.6530     1.9590     0.2890 h1         1 PA3       0.047200
     11 H2          -2.4350    -0.1710    -1.1960 h1         1 PA3       0.046700
     12 HO2         -3.1020     0.1300     1.0320 ho         1 PA3       0.406000
     13 H31         -0.7540    -2.0860    -0.2330 hc         1 PA3       0.063200
     14 H32         -0.2640    -1.0620    -1.5790 hc         1 PA3       0.063200
     15 H4           0.5840    -0.8610     1.3220 h1         1 PA3       0.079700
     16 H51          2.0980    -1.5390    -0.5360 h1         1 PA3       0.018700
     17 H52          1.8530     0.0370    -1.2910 h1         1 PA3       0.018700
     18 HO5          3.7220    -0.0250     0.1160 ho         1 PA3       0.401000
@<TRIPOS>BOND
     1     1     2 1   
     2     1     6 1   
     3     1     9 1   
     4     1    10 1   
     5     2     3 1   
     6     2     4 1   
     7     2    11 1   
     8     3    12 1   
     9     4     5 1   
    10     4    13 1   
    11     4    14 1   
    12     5     6 1   
    13     5     7 1   
    14     5    15 1   
    15     7     8 1   
    16     7    16 1   
    17     7    17 1   
    18     8    18 1   
@<TRIPOS>SUBSTRUCTURE
     1 PA3         1 TEMP              0 ****  ****    0 ROOT
