@<TRIPOS>MOLECULE
PA3
   18    18     1     0     0
SMALL
No Charge or Current Charge


@<TRIPOS>ATOM
      1 C1          -1.1940     1.2850    -0.2700 c5         1 PA3       0.115600
      2 C2          -1.7900    -0.1680    -0.2970 c5         1 PA3       0.135300
      3 O2          -2.2870    -0.5890     0.9800 oh         1 PA3      -0.709000
      4 C3          -0.5350    -0.9850    -0.6940 c5         1 PA3      -0.107400
      5 C4           0.5400    -0.2430     0.1360 c5         1 PA3       0.164300
      6 O4           0.2450     1.1420    -0.1520 os         1 PA3      -0.435000
      7 C5           2.0100    -0.5950    -0.2350 c3         1 PA3       0.150600
      8 O5           2.9450    -0.0060     0.6870 oh         1 PA3      -0.704000
      9 H11         -1.4160     1.8280    -1.1980 h1         1 PA3       0.047200
     10 H12         -1.5750     1.8740     0.5750 h1         1 PA3       0.047200
     11 H2          -2.5780    -0.2620    -1.0580 h1         1 PA3       0.046700
     12 HO2         -3.1260    -0.0970     1.1420 ho         1 PA3       0.505000
     13 H31         -0.6160    -2.0460    -0.4340 hc         1 PA3       0.063200
     14 H32         -0.3310    -0.9190    -1.7690 hc         1 PA3       0.063200
     15 H4           0.3940    -0.4250     1.2110 h1         1 PA3       0.079700
     16 H51          2.1170    -1.6880    -0.2250 h1         1 PA3       0.018700
     17 H52          2.2110    -0.2520    -1.2590 h1         1 PA3       0.018700
     18 HO5          3.8490    -0.2220     0.3560 ho         1 PA3       0.500000
@<TRIPOS>BOND
     1     1     2 1   
     2     1     6 1   
     3     1     9 1   
     4     1    10 1   
     5     2     3 1   
     6     2     4 1   
     7     2    11 1   
     8     3    12 1   
     9     4     5 1   
    10     4    13 1   
    11     4    14 1   
    12     5     6 1   
    13     5     7 1   
    14     5    15 1   
    15     7     8 1   
    16     7    16 1   
    17     7    17 1   
    18     8    18 1   
@<TRIPOS>SUBSTRUCTURE
     1 PA3         1 TEMP              0 ****  ****    0 ROOT
