@<TRIPOS>MOLECULE
PA4
   26    26     1     0     0
SMALL
abcg2


@<TRIPOS>ATOM
      1 C1          -1.4020     0.0480     0.3090 c6         1 PA4       0.154300
      2 O1          -1.6270     1.4290     0.4160 oh         1 PA4      -0.684000
      3 C2          -1.1940    -0.4040    -1.1440 c6         1 PA4       0.130300
      4 O2          -1.3590    -1.8050    -1.1380 oh         1 PA4      -0.662000
      5 C3           0.1840    -0.0180    -1.7050 c6         1 PA4       0.115500
      6 N3           0.2300     1.3990    -2.0050 n8         1 PA4      -0.963200
      7 C4           1.2570    -0.3960    -0.6880 c6         1 PA4       0.408300
      8 O4           2.4830     0.0630    -1.1360 oh         1 PA4      -0.645000
      9 C5          -0.1860    -0.3200     1.1520 c6         1 PA4       0.197300
     10 O5           0.9980     0.1780     0.5680 os         1 PA4      -0.441000
     11 C6          -0.2850     0.1820     2.5820 c3         1 PA4       0.156800
     12 N6           0.7710    -0.3830     3.4060 n8         1 PA4      -0.986200
     13 H1          -2.2600    -0.5210     0.7000 h1         1 PA4       0.042700
     14 HO1         -2.3280     1.6740    -0.1950 ho         1 PA4       0.498000
     15 H2          -1.9660     0.0680    -1.7750 h1         1 PA4       0.031700
     16 HO2         -1.2410    -2.1300    -2.0360 ho         1 PA4       0.447000
     17 H3           0.3540    -0.6450    -2.5980 h1         1 PA4       0.014700
     18 HN31         1.0630     1.6030    -2.5390 hn         1 PA4       0.398500
     19 HN32        -0.5460     1.6350    -2.6110 hn         1 PA4       0.398500
     20 H4           1.2600    -1.4950    -0.5830 h2         1 PA4       0.016700
     21 HO4          3.1830    -0.3500    -0.6200 ho         1 PA4       0.461000
     22 H5          -0.1480    -1.4210     1.1830 h1         1 PA4       0.038700
     23 H61         -1.2970    -0.0490     2.9450 h1         1 PA4       0.047700
     24 H62         -0.1910     1.2700     2.5960 h1         1 PA4       0.047700
     25 HN61         0.7170     0.0150     4.3340 hn         1 PA4       0.388500
     26 HN62         0.6070    -1.3750     3.5270 hn         1 PA4       0.388500
@<TRIPOS>BOND
     1     1     2 1   
     2     1     3 1   
     3     1     9 1   
     4     1    13 1   
     5     2    14 1   
     6     3     4 1   
     7     3     5 1   
     8     3    15 1   
     9     4    16 1   
    10     5     6 1   
    11     5     7 1   
    12     5    17 1   
    13     6    18 1   
    14     6    19 1   
    15     7     8 1   
    16     7    10 1   
    17     7    20 1   
    18     8    21 1   
    19     9    10 1   
    20     9    11 1   
    21     9    22 1   
    22    11    12 1   
    23    11    23 1   
    24    11    24 1   
    25    12    25 1   
    26    12    26 1   
@<TRIPOS>SUBSTRUCTURE
     1 PA4         1 TEMP              0 ****  ****    0 ROOT
