@<TRIPOS>MOLECULE
PA4
   26    26     1     0     0
SMALL
No Charge or Current Charge


@<TRIPOS>ATOM
      1 C1          -1.4510     0.0410     0.3540 c6         1 PA4       0.154300
      2 O1          -1.5250     1.4770     0.2660 oh         1 PA4      -0.684000
      3 C2          -1.3480    -0.5280    -1.0990 c6         1 PA4       0.130300
      4 O2          -1.4160    -1.9660    -1.1010 oh         1 PA4      -0.662000
      5 C3          -0.0100    -0.0330    -1.7480 c6         1 PA4       0.115500
      6 N3          -0.0580     1.4460    -2.0280 n8         1 PA4      -0.963200
      7 C4           1.2000    -0.4430    -0.8160 c6         1 PA4       0.408300
      8 O4           2.4160     0.1280    -1.2700 oh         1 PA4      -0.645000
      9 C5          -0.1830    -0.4090     1.1600 c6         1 PA4       0.197300
     10 O5           1.0200     0.0790     0.5070 os         1 PA4      -0.441000
     11 C6          -0.1980     0.1160     2.6380 c3         1 PA4       0.156800
     12 N6           0.9060    -0.3770     3.5140 n8         1 PA4      -0.986200
     13 H1          -2.3530    -0.3580     0.8410 h1         1 PA4       0.042700
     14 HO1         -0.9540     1.6780    -0.5330 ho         1 PA4       0.498000
     15 H2          -2.1910    -0.1340    -1.6850 h1         1 PA4       0.031700
     16 HO2         -1.6580    -2.2420    -2.0140 ho         1 PA4       0.447000
     17 H3           0.1270    -0.5260    -2.7210 h1         1 PA4       0.014700
     18 HN31         0.9170     1.7610    -2.1350 hn         1 PA4       0.398500
     19 HN32        -0.4460     1.5910    -2.9690 hn         1 PA4       0.398500
     20 H4           1.2950    -1.5390    -0.7700 h2         1 PA4       0.016700
     21 HO4          2.8620     0.3900    -0.4380 ho         1 PA4       0.461000
     22 H5          -0.1470    -1.5080     1.1950 h1         1 PA4       0.038700
     23 H61         -1.1540    -0.1770     3.0950 h1         1 PA4       0.047700
     24 H62         -0.1630     1.2150     2.6200 h1         1 PA4       0.047700
     25 HN61         0.7570    -0.0310     4.4690 hn         1 PA4       0.388500
     26 HN62         0.8310    -1.3970     3.6100 hn         1 PA4       0.388500
@<TRIPOS>BOND
     1     1     2 1   
     2     1     3 1   
     3     1     9 1   
     4     1    13 1   
     5     2    14 1   
     6     3     4 1   
     7     3     5 1   
     8     3    15 1   
     9     4    16 1   
    10     5     6 1   
    11     5     7 1   
    12     5    17 1   
    13     6    18 1   
    14     6    19 1   
    15     7     8 1   
    16     7    10 1   
    17     7    20 1   
    18     8    21 1   
    19     9    10 1   
    20     9    11 1   
    21     9    22 1   
    22    11    12 1   
    23    11    23 1   
    24    11    24 1   
    25    12    25 1   
    26    12    26 1   
@<TRIPOS>SUBSTRUCTURE
     1 PA4         1 TEMP              0 ****  ****    0 ROOT
