@<TRIPOS>MOLECULE
PA7
   41    43     1     0     0
SMALL
abcg2


@<TRIPOS>ATOM
      1 C5           2.6740     0.4130     0.3300 c          1 PA7       0.594100
      2 O5           2.2210     1.5420     0.2010 o          1 PA7      -0.595100
      3 N5           3.9740     0.1210     0.2530 ns         1 PA7      -0.501900
      4 C51          4.9980     1.1180     0.0060 c3         1 PA7       0.101000
      5 C52          6.3610     0.4590    -0.1340 c3         1 PA7      -0.094400
      6 C53          7.4670     1.4860    -0.3200 c3         1 PA7      -0.088100
      7 C4           1.7760    -0.7980     0.5140 c5         1 PA7       0.053300
      8 O4           0.6690    -0.4530     1.3200 os         1 PA7      -0.415000
      9 C3           1.1670    -1.2720    -0.8170 c5         1 PA7       0.100300
     10 O3           1.9880    -2.1460    -1.5270 oh         1 PA7      -0.711000
     11 C2          -0.1020    -1.9610    -0.3160 c5         1 PA7       0.130300
     12 O2           0.1800    -3.2160     0.2380 oh         1 PA7      -0.704000
     13 C1          -0.5060    -1.0400     0.8350 c5         1 PA7       0.321300
     14 N9          -1.4210     0.0050     0.4040 na         1 PA7      -0.312300
     15 C8          -1.1420     1.2950     0.0410 cc         1 PA7       0.419700
     16 N7          -2.2030     1.9700    -0.2990 nd         1 PA7      -0.559100
     17 C7          -3.2360     1.0830    -0.1560 ca         1 PA7      -0.095600
     18 C6          -4.6250     1.1830    -0.3560 ca         1 PA7       0.450900
     19 N6          -5.2160     2.3030    -0.7750 nv         1 PA7      -1.066900
     20 N1          -5.3740     0.1010    -0.1110 nb         1 PA7      -0.303000
     21 C10         -4.7850    -1.0160     0.3060 ca         1 PA7       0.179900
     22 N3          -3.4990    -1.2340     0.5270 nb         1 PA7      -0.224000
     23 C9          -2.7710    -0.1470     0.2820 ca         1 PA7       0.117500
     24 H5           4.2720    -0.8200     0.4520 hn         1 PA7       0.319500
     25 H511         5.0170     1.8430     0.8260 h1         1 PA7       0.054700
     26 H512         4.7560     1.6720    -0.9040 h1         1 PA7       0.054700
     27 H521         6.3470    -0.2320    -0.9810 hc         1 PA7       0.043200
     28 H522         6.5640    -0.1410     0.7580 hc         1 PA7       0.043200
     29 H531         7.5200     2.1690     0.5290 hc         1 PA7       0.038700
     30 H532         8.4380     1.0010    -0.4150 hc         1 PA7       0.038700
     31 H533         7.3080     2.0840    -1.2190 hc         1 PA7       0.038700
     32 H4           2.3320    -1.6260     0.9700 h1         1 PA7       0.081700
     33 H3           0.8810    -0.4010    -1.4190 h1         1 PA7       0.069700
     34 H2           2.4120    -1.6750    -2.2490 ho         1 PA7       0.524000
     35 H7          -0.8780    -2.0160    -1.0880 h1         1 PA7       0.080700
     36 H1           0.6030    -3.7590    -0.4360 ho         1 PA7       0.528000
     37 H9          -1.0110    -1.5990     1.6270 h2         1 PA7       0.128700
     38 H8          -0.1340     1.6810     0.0540 h5         1 PA7       0.098800
     39 HN61        -4.6830     3.1360    -0.9570 hn         1 PA7       0.507000
     40 HN62        -6.2140     2.3400    -0.8880 hn         1 PA7       0.507000
     41 H6          -5.4500    -1.8530     0.4870 h5         1 PA7       0.045100
@<TRIPOS>BOND
     1     1     2 2   
     2     1     3 1   
     3     1     7 1   
     4     3     4 1   
     5     3    24 1   
     6     4     5 1   
     7     4    25 1   
     8     4    26 1   
     9     5     6 1   
    10     5    27 1   
    11     5    28 1   
    12     6    29 1   
    13     6    30 1   
    14     6    31 1   
    15     7     8 1   
    16     7     9 1   
    17     7    32 1   
    18     8    13 1   
    19     9    10 1   
    20     9    11 1   
    21     9    33 1   
    22    10    34 1   
    23    11    12 1   
    24    11    13 1   
    25    11    35 1   
    26    12    36 1   
    27    13    14 1   
    28    13    37 1   
    29    14    15 1   
    30    14    23 1   
    31    15    16 2   
    32    15    38 1   
    33    16    17 1   
    34    17    18 ar  
    35    17    23 ar  
    36    18    19 1   
    37    18    20 ar  
    38    19    39 1   
    39    19    40 1   
    40    20    21 ar  
    41    21    22 ar  
    42    21    41 1   
    43    22    23 ar  
@<TRIPOS>SUBSTRUCTURE
     1 PA7         1 TEMP              0 ****  ****    0 ROOT
