@<TRIPOS>MOLECULE
PA7
   41    43     1     0     0
SMALL
No Charge or Current Charge


@<TRIPOS>ATOM
      1 C5           1.8880    -0.1260     0.7410 c          1 PA7       0.594100
      2 O5           1.1850     0.7930     1.1450 o          1 PA7      -0.595100
      3 N5           3.2350     0.0230     0.4820 ns         1 PA7      -0.501900
      4 C51          3.9670     1.2810     0.6220 c3         1 PA7       0.101000
      5 C52          5.3940     1.1710     0.0530 c3         1 PA7      -0.094400
      6 C53          6.1940     2.4820     0.1820 c3         1 PA7      -0.088100
      7 C4           1.4830    -1.6130     0.4930 c5         1 PA7       0.053300
      8 O4           0.1290    -1.9030     0.9530 os         1 PA7      -0.415000
      9 C3           1.5060    -1.9130    -1.0470 c5         1 PA7       0.100300
     10 O3           2.6660    -2.6690    -1.4410 oh         1 PA7      -0.711000
     11 C2           0.2020    -2.7460    -1.2540 c5         1 PA7       0.130300
     12 O2           0.4740    -4.1280    -0.9710 oh         1 PA7      -0.704000
     13 C1          -0.7360    -2.0720    -0.1940 c5         1 PA7       0.321300
     14 N9          -1.3630    -0.7810    -0.5220 na         1 PA7      -0.312300
     15 C8          -1.2510    -0.0730    -1.7280 cc         1 PA7       0.419700
     16 N7          -1.9770     1.0610    -1.7040 nd         1 PA7      -0.559100
     17 C7          -2.5610     1.0420    -0.4350 ca         1 PA7      -0.095600
     18 C6          -3.4340     1.9740     0.1650 ca         1 PA7       0.450900
     19 N6          -3.8480     3.1050    -0.4670 nv         1 PA7      -1.066900
     20 N1          -3.8990     1.7890     1.4110 nb         1 PA7      -0.303000
     21 C10         -3.4860     0.6600     2.0370 ca         1 PA7       0.179900
     22 N3          -2.6570    -0.2870     1.5380 nb         1 PA7      -0.224000
     23 C9          -2.2000    -0.0660     0.2890 ca         1 PA7       0.117500
     24 H5           3.7320    -0.7970     0.1500 hn         1 PA7       0.319500
     25 H511         4.0110     1.5470     1.6860 h1         1 PA7       0.054700
     26 H512         3.4200     2.0720     0.0900 h1         1 PA7       0.054700
     27 H521         5.3410     0.8870    -1.0060 hc         1 PA7       0.043200
     28 H522         5.9320     0.3710     0.5760 hc         1 PA7       0.043200
     29 H531         6.2910     2.7750     1.2340 hc         1 PA7       0.038700
     30 H532         7.2010     2.3580    -0.2350 hc         1 PA7       0.038700
     31 H533         5.6960     3.2950    -0.3600 hc         1 PA7       0.038700
     32 H4           2.1800    -2.2570     1.0440 h1         1 PA7       0.081700
     33 H3           1.4510    -0.9720    -1.6150 h1         1 PA7       0.069700
     34 H2           2.8740    -2.4420    -2.3810 ho         1 PA7       0.524000
     35 H7          -0.1960    -2.6390    -2.2730 h1         1 PA7       0.080700
     36 H1           1.4650    -4.1670    -0.9970 ho         1 PA7       0.528000
     37 H9          -1.5670    -2.7440     0.0570 h2         1 PA7       0.128700
     38 H8          -0.6540    -0.4210    -2.5630 h5         1 PA7       0.098800
     39 HN61        -3.3380     3.3670    -1.3070 hn         1 PA7       0.507000
     40 HN62        -4.2140     3.8660     0.0990 hn         1 PA7       0.507000
     41 H6          -3.8610     0.4970     3.0470 h5         1 PA7       0.045100
@<TRIPOS>BOND
     1     1     2 2   
     2     1     3 1   
     3     1     7 1   
     4     3     4 1   
     5     3    24 1   
     6     4     5 1   
     7     4    25 1   
     8     4    26 1   
     9     5     6 1   
    10     5    27 1   
    11     5    28 1   
    12     6    29 1   
    13     6    30 1   
    14     6    31 1   
    15     7     8 1   
    16     7     9 1   
    17     7    32 1   
    18     8    13 1   
    19     9    10 1   
    20     9    11 1   
    21     9    33 1   
    22    10    34 1   
    23    11    12 1   
    24    11    13 1   
    25    11    35 1   
    26    12    36 1   
    27    13    14 1   
    28    13    37 1   
    29    14    15 1   
    30    14    23 1   
    31    15    16 2   
    32    15    38 1   
    33    16    17 1   
    34    17    18 ar  
    35    17    23 ar  
    36    18    19 1   
    37    18    20 ar  
    38    19    39 1   
    39    19    40 1   
    40    20    21 ar  
    41    21    22 ar  
    42    21    41 1   
    43    22    23 ar  
@<TRIPOS>SUBSTRUCTURE
     1 PA7         1 TEMP              0 ****  ****    0 ROOT
