@<TRIPOS>MOLECULE
PA9
   33    32     1     0     0
SMALL
No Charge or Current Charge


@<TRIPOS>ATOM
      1 CA          -3.5680     0.5550     0.3340 c3         1 PA9      -0.038300
      2 CB          -2.2620     1.1460    -0.2610 c3         1 PA9      -0.072400
      3 CG          -1.0260     0.2240    -0.1410 c3         1 PA9      -0.096400
      4 CD           0.2600     0.8770    -0.6820 c3         1 PA9       0.122000
      5 C           -4.7230     1.6050     0.3260 c          1 PA9       0.715000
      6 O           -5.2640     1.8730    -0.7390 o          1 PA9      -0.745500
      7 OXT         -5.1050     2.0520     1.3980 o          1 PA9      -0.745500
      8 C1          -3.7330    -1.9690     0.0460 c          1 PA9       0.604100
      9 O1          -3.1220    -2.2300     1.0740 o          1 PA9      -0.652100
     10 P            4.6740    -0.3540     0.4800 p5         1 PA9       1.308500
     11 O1P          5.5440     0.7810     0.0610 o          1 PA9      -0.917167
     12 O2P          5.5160    -1.5240     0.8570 o          1 PA9      -0.917167
     13 O3P          3.7990     0.0310     1.6210 o          1 PA9      -0.917167
     14 N1          -3.9940    -0.6810    -0.3670 ns         1 PA9      -0.436900
     15 C2          -4.2750    -3.0540    -0.8820 c3         1 PA9      -0.175100
     16 N2           1.4130    -0.0110    -0.5650 ns         1 PA9      -0.533900
     17 C3           2.6410     0.2200    -1.1240 c          1 PA9       0.633100
     18 O2           2.8690     1.2020    -1.8150 o          1 PA9      -0.756100
     19 C4           3.6410    -0.8770    -0.9060 c3         1 PA9      -0.476400
     20 HA          -3.3810     0.3090     1.3880 h1         1 PA9       0.069700
     21 HB          -2.4260     1.3930    -1.3170 hc         1 PA9       0.035700
     22 HBA         -2.0440     2.0910     0.2520 hc         1 PA9       0.035700
     23 HG          -0.8790    -0.0460     0.9120 hc         1 PA9       0.048200
     24 HGA         -1.2080    -0.7060    -0.6930 hc         1 PA9       0.048200
     25 HD           0.1190     1.1350    -1.7390 h1         1 PA9       0.005200
     26 HDA          0.4710     1.7980    -0.1220 h1         1 PA9       0.005200
     27 HN1         -4.5290    -0.5790    -1.2210 hn         1 PA9       0.290500
     28 H2          -4.0570    -4.0680    -0.5260 hc         1 PA9       0.033700
     29 H2A         -5.3510    -2.9000    -1.0250 hc         1 PA9       0.033700
     30 H2B         -3.8830    -2.8890    -1.8930 hc         1 PA9       0.033700
     31 HN2          1.3310    -0.8510    -0.0070 hn         1 PA9       0.397500
     32 H4           4.2860    -1.0170    -1.7810 hc         1 PA9       0.028700
     33 H4A          3.1640    -1.8120    -0.5910 hc         1 PA9       0.028700
@<TRIPOS>BOND
     1     1     2 1   
     2     1     5 1   
     3     1    14 1   
     4     1    20 1   
     5     2     3 1   
     6     2    21 1   
     7     2    22 1   
     8     3     4 1   
     9     3    23 1   
    10     3    24 1   
    11     4    16 1   
    12     4    25 1   
    13     4    26 1   
    14     5     6 1   
    15     5     7 1   
    16     8     9 2   
    17     8    14 1   
    18     8    15 1   
    19    10    11 1   
    20    10    12 1   
    21    10    13 1   
    22    10    19 1   
    23    14    27 1   
    24    15    28 1   
    25    15    29 1   
    26    15    30 1   
    27    16    17 1   
    28    16    31 1   
    29    17    18 2   
    30    17    19 1   
    31    19    32 1   
    32    19    33 1   
@<TRIPOS>SUBSTRUCTURE
     1 PA9         1 TEMP              0 ****  ****    0 ROOT
