@<TRIPOS>MOLECULE
PA9
   33    32     1     0     0
SMALL
bcc


@<TRIPOS>ATOM
      1 CA          -3.2760     0.4330     0.3400 c3         1 PA9      -0.038300
      2 CB          -2.0900     1.0980    -0.3570 c3         1 PA9      -0.072400
      3 CG          -0.7940     0.3050    -0.2550 c3         1 PA9      -0.096400
      4 CD           0.3680     1.0230    -0.9220 c3         1 PA9       0.122000
      5 C           -4.5230     1.3580     0.3220 c          1 PA9       0.925600
      6 O           -5.5350     0.9580    -0.2770 o          1 PA9      -0.850800
      7 OXT         -4.3780     2.4420     0.9230 o          1 PA9      -0.850800
      8 C1          -4.2220    -1.8250     0.3560 c          1 PA9       0.671100
      9 O1          -4.5770    -1.7570     1.5280 o          1 PA9      -0.652100
     10 P            4.0170    -0.9230     0.6580 p5         1 PA9       1.150700
     11 O1P          4.3040     0.3430     1.4620 o          1 PA9      -0.917167
     12 O2P          5.1420    -1.9560     0.6520 o          1 PA9      -0.917167
     13 O3P          2.6230    -1.5360     0.9460 o          1 PA9      -0.917167
     14 N1          -3.5270    -0.8580    -0.2550 ns         1 PA9      -0.503900
     15 C2          -4.5130    -3.0470    -0.4820 c3         1 PA9      -0.175100
     16 N2           1.5680     0.2280    -0.8290 ns         1 PA9      -0.600900
     17 C3           2.7330     0.6030    -1.3790 c          1 PA9       0.700100
     18 O2           2.8510     1.6290    -2.0510 o          1 PA9      -0.756100
     19 C4           3.8670    -0.3580    -1.1280 c3         1 PA9      -0.318600
     20 HA          -3.0020     0.2710     1.3870 h1         1 PA9       0.069700
     21 HB          -2.3360     1.2690    -1.4130 hc         1 PA9       0.035700
     22 HBA         -1.9510     2.0850     0.0870 hc         1 PA9       0.035700
     23 HG          -0.5580     0.1310     0.8010 hc         1 PA9       0.048200
     24 HGA         -0.9160    -0.6820    -0.7110 hc         1 PA9       0.048200
     25 HD           0.1270     1.2110    -1.9730 h1         1 PA9       0.005200
     26 HDA          0.5080     2.0070    -0.4590 h1         1 PA9       0.005200
     27 HN1         -3.3710    -0.9470    -1.2460 hn         1 PA9       0.290500
     28 H2          -4.0470    -3.9200    -0.0260 hc         1 PA9       0.033700
     29 H2A         -5.5880    -3.2270    -0.5010 hc         1 PA9       0.033700
     30 H2B         -4.1600    -2.9680    -1.5090 hc         1 PA9       0.033700
     31 HN2          1.6530    -0.5200    -0.1210 hn         1 PA9       0.397500
     32 H4           4.7980     0.0970    -1.4700 hc         1 PA9       0.028700
     33 H4A          3.7040    -1.2460    -1.7490 hc         1 PA9       0.028700
@<TRIPOS>BOND
     1     1     2 1   
     2     1     5 1   
     3     1    14 1   
     4     1    20 1   
     5     2     3 1   
     6     2    21 1   
     7     2    22 1   
     8     3     4 1   
     9     3    23 1   
    10     3    24 1   
    11     4    16 1   
    12     4    25 1   
    13     4    26 1   
    14     5     6 1   
    15     5     7 1   
    16     8     9 2   
    17     8    14 1   
    18     8    15 1   
    19    10    11 1   
    20    10    12 1   
    21    10    13 1   
    22    10    19 1   
    23    14    27 1   
    24    15    28 1   
    25    15    29 1   
    26    15    30 1   
    27    16    17 1   
    28    16    31 1   
    29    17    18 2   
    30    17    19 1   
    31    19    32 1   
    32    19    33 1   
@<TRIPOS>SUBSTRUCTURE
     1 PA9         1 TEMP              0 ****  ****    0 ROOT
