@<TRIPOS>MOLECULE
PAA
   20    20     1     0     0
SMALL
abcg2


@<TRIPOS>ATOM
      1 CM           3.8730     0.0250    -0.5100 c3         1 PAA       0.026900
      2 N1           2.4570    -0.0270    -0.1370 na         1 PAA       0.017300
      3 C2           1.7790     1.1240     0.0160 ca         1 PAA      -0.080500
      4 C3           0.4620     1.1220     0.3860 ca         1 PAA      -0.127500
      5 C4          -0.2020    -0.0850     0.6260 ca         1 PAA       0.126700
      6 C5           0.5340    -1.2550     0.4620 ca         1 PAA      -0.127500
      7 C6           1.8530    -1.2010     0.0810 ca         1 PAA      -0.029800
      8 C7          -1.6350    -0.1110     1.0000 c3         1 PAA      -0.233100
      9 C1          -2.5730     0.2070    -0.2120 c          1 PAA       0.736000
     10 O1          -2.0530     0.7710    -1.1880 o          1 PAA      -0.663000
     11 O2          -3.7590    -0.1200    -0.0540 o          1 PAA      -0.663000
     12 HM1          4.4540     0.3920     0.3320 h1         1 PAA       0.075700
     13 HM2          4.2120    -0.9690    -0.7790 h1         1 PAA       0.075700
     14 HM3          3.9970     0.6900    -1.3600 h1         1 PAA       0.075700
     15 H2           2.3280     2.0350    -0.1710 h4         1 PAA       0.157000
     16 H3          -0.0420     2.0690     0.5050 ha         1 PAA       0.166500
     17 H5           0.0860    -2.2240     0.6330 ha         1 PAA       0.166500
     18 H6           2.4500    -2.0900    -0.0560 h4         1 PAA       0.157000
     19 H2'1        -1.9040    -1.0760     1.4310 hc         1 PAA       0.072200
     20 H2'2        -1.8300     0.6480     1.7640 hc         1 PAA       0.072200
@<TRIPOS>BOND
     1     1     2 1   
     2     1    12 1   
     3     1    13 1   
     4     1    14 1   
     5     2     3 1   
     6     2     7 2   
     7     3     4 ar  
     8     3    15 1   
     9     4     5 ar  
    10     4    16 1   
    11     5     6 ar  
    12     5     8 1   
    13     6     7 ar  
    14     6    17 1   
    15     7    18 1   
    16     8     9 1   
    17     8    19 1   
    18     8    20 1   
    19     9    10 1   
    20     9    11 1   
@<TRIPOS>SUBSTRUCTURE
     1 PAA         1 TEMP              0 ****  ****    0 ROOT
