@<TRIPOS>MOLECULE
PAA
   20    20     1     0     0
SMALL
No Charge or Current Charge


@<TRIPOS>ATOM
      1 CM           3.9030    -0.1270    -0.5570 c3         1 PAA       0.026900
      2 N1           2.4880    -0.0670    -0.1580 na         1 PAA       0.017300
      3 C2           1.8430     1.1640    -0.0170 ca         1 PAA      -0.080500
      4 C3           0.4940     1.2310     0.3800 ca         1 PAA      -0.127500
      5 C4          -0.2260     0.0490     0.6450 ca         1 PAA       0.126700
      6 C5           0.4270    -1.1900     0.5080 ca         1 PAA      -0.127500
      7 C6           1.7770    -1.2390     0.1100 ca         1 PAA      -0.029800
      8 C7          -1.6830     0.1120     1.0760 c3         1 PAA      -0.233100
      9 C1          -2.5610     0.0670    -0.1690 c          1 PAA       0.736000
     10 O1          -2.8050     1.1240    -0.7300 o          1 PAA      -0.663000
     11 O2          -2.8610    -1.0300    -0.6130 o          1 PAA      -0.663000
     12 HM1          4.5360    -0.1080     0.3380 h1         1 PAA       0.075700
     13 HM2          4.0970    -1.0500    -1.1180 h1         1 PAA       0.075700
     14 HM3          4.1510     0.7320    -1.1930 h1         1 PAA       0.075700
     15 H2           2.4170     2.0680    -0.2250 h4         1 PAA       0.157000
     16 H3           0.0070     2.1990     0.4790 ha         1 PAA       0.166500
     17 H5          -0.1090    -2.1150     0.7070 ha         1 PAA       0.166500
     18 H6           2.3010    -2.1900     0.0000 h4         1 PAA       0.157000
     19 H2'1        -1.8780    -0.7640     1.7040 hc         1 PAA       0.072200
     20 H2'2        -1.8300     1.0610     1.6040 hc         1 PAA       0.072200
@<TRIPOS>BOND
     1     1     2 1   
     2     1    12 1   
     3     1    13 1   
     4     1    14 1   
     5     2     3 1   
     6     2     7 2   
     7     3     4 ar  
     8     3    15 1   
     9     4     5 ar  
    10     4    16 1   
    11     5     6 ar  
    12     5     8 1   
    13     6     7 ar  
    14     6    17 1   
    15     7    18 1   
    16     8     9 1   
    17     8    19 1   
    18     8    20 1   
    19     9    10 1   
    20     9    11 1   
@<TRIPOS>SUBSTRUCTURE
     1 PAA         1 TEMP              0 ****  ****    0 ROOT
