@<TRIPOS>MOLECULE
PAB
   16    16     1     0     0
SMALL
No Charge or Current Charge


@<TRIPOS>ATOM
      1 C1          -0.0560    -0.0270    -2.1630 c          1 PAB       0.714600
      2 O1          -1.1410    -0.0260    -2.7280 o          1 PAB      -0.728500
      3 O2           1.0060    -0.0420    -2.7680 o          1 PAB      -0.728500
      4 C7          -0.0280    -0.0100    -0.6440 ca         1 PAB      -0.162600
      5 C2          -1.2300     0.0080     0.1030 ca         1 PAB      -0.056000
      6 C3          -1.1990     0.0240     1.5090 ca         1 PAB      -0.202000
      7 C4           0.0260     0.0230     2.1880 ca         1 PAB       0.245000
      8 C5           1.2240     0.0060     1.4640 ca         1 PAB      -0.202000
      9 C6           1.2020    -0.0100     0.0570 ca         1 PAB      -0.056000
     10 N4           0.0510     0.0380     3.5530 nv         1 PAB      -1.086000
     11 H2          -2.1930     0.0090    -0.4040 ha         1 PAB       0.123000
     12 H3          -2.1330     0.0380     2.0640 ha         1 PAB       0.083000
     13 H5           2.1780     0.0060     1.9830 ha         1 PAB       0.083000
     14 H6           2.1450    -0.0230    -0.4850 ha         1 PAB       0.123000
     15 HN41         0.9330    -0.0870     4.0470 hn         1 PAB       0.425000
     16 HN42        -0.8120    -0.0740     4.0810 hn         1 PAB       0.425000
@<TRIPOS>BOND
     1     1     2 1   
     2     1     3 1   
     3     1     4 1   
     4     4     5 ar  
     5     4     9 ar  
     6     5     6 ar  
     7     5    11 1   
     8     6     7 ar  
     9     6    12 1   
    10     7     8 ar  
    11     7    10 1   
    12     8     9 ar  
    13     8    13 1   
    14     9    14 1   
    15    10    15 1   
    16    10    16 1   
@<TRIPOS>SUBSTRUCTURE
     1 PAB         1 TEMP              0 ****  ****    0 ROOT
