@<TRIPOS>MOLECULE
PAB
   16    16     1     0     0
SMALL
abcg2


@<TRIPOS>ATOM
      1 C1          -0.0560    -0.0490    -2.1510 c          1 PAB       0.714600
      2 O1          -1.1800    -0.0480    -2.6950 o          1 PAB      -0.728500
      3 O2           1.0460    -0.0840    -2.7350 o          1 PAB      -0.728500
      4 C7          -0.0280    -0.0060    -0.6360 ca         1 PAB      -0.162600
      5 C2          -1.2040     0.0200     0.1110 ca         1 PAB      -0.056000
      6 C3          -1.1880     0.0520     1.4950 ca         1 PAB      -0.202000
      7 C4           0.0260     0.0600     2.1950 ca         1 PAB       0.245000
      8 C5           1.2120     0.0350     1.4500 ca         1 PAB      -0.202000
      9 C6           1.1760     0.0040     0.0670 ca         1 PAB      -0.056000
     10 N4           0.0520     0.1420     3.5700 nv         1 PAB      -1.086000
     11 H2          -2.1570     0.0110    -0.4020 ha         1 PAB       0.123000
     12 H3          -2.1210     0.0690     2.0470 ha         1 PAB       0.083000
     13 H5           2.1660     0.0390     1.9660 ha         1 PAB       0.083000
     14 H6           2.1090    -0.0170    -0.4830 ha         1 PAB       0.123000
     15 HN41         0.8930    -0.1920     4.0130 hn         1 PAB       0.425000
     16 HN42        -0.7740    -0.1850     4.0450 hn         1 PAB       0.425000
@<TRIPOS>BOND
     1     1     2 1   
     2     1     3 1   
     3     1     4 1   
     4     4     5 ar  
     5     4     9 ar  
     6     5     6 ar  
     7     5    11 1   
     8     6     7 ar  
     9     6    12 1   
    10     7     8 ar  
    11     7    10 1   
    12     8     9 ar  
    13     8    13 1   
    14     9    14 1   
    15    10    15 1   
    16    10    16 1   
@<TRIPOS>SUBSTRUCTURE
     1 PAB         1 TEMP              0 ****  ****    0 ROOT
