@<TRIPOS>MOLECULE
PAC
   17    17     1     0     0
SMALL
No Charge or Current Charge


@<TRIPOS>ATOM
      1 C1           0.0640     0.1480     2.1390 c          1 PAC       0.725000
      2 C2           0.1760    -1.0420     1.1740 c3         1 PAC      -0.192100
      3 C7           0.0570    -0.5450    -0.2630 ca         1 PAC       0.013700
      4 C8           1.2080    -0.1640    -0.9830 ca         1 PAC      -0.113000
      5 C3           1.1000     0.2910    -2.3090 ca         1 PAC      -0.120000
      6 C4          -0.1600     0.3670    -2.9250 ca         1 PAC      -0.152000
      7 C5          -1.3120    -0.0110    -2.2150 ca         1 PAC      -0.120000
      8 C6          -1.2030    -0.4650    -0.8890 ca         1 PAC      -0.113000
      9 O1           1.0840     0.7630     2.4150 o          1 PAC      -0.727000
     10 O2          -1.0510     0.4950     2.4980 o          1 PAC      -0.727000
     11 H21          1.1600    -1.5160     1.2720 hc         1 PAC       0.030200
     12 H22         -0.6510    -1.7430     1.3420 hc         1 PAC       0.030200
     13 H2           2.1870    -0.2180    -0.5130 ha         1 PAC       0.104000
     14 H3           1.9920     0.5840    -2.8570 ha         1 PAC       0.086000
     15 H4          -0.2440     0.7190    -3.9510 ha         1 PAC       0.084000
     16 H5          -2.2880     0.0480    -2.6910 ha         1 PAC       0.086000
     17 H6          -2.1000    -0.7540    -0.3460 ha         1 PAC       0.104000
@<TRIPOS>BOND
     1     1     2 1   
     2     1     9 1   
     3     1    10 1   
     4     2     3 1   
     5     2    11 1   
     6     2    12 1   
     7     3     4 ar  
     8     3     8 ar  
     9     4     5 ar  
    10     4    13 1   
    11     5     6 ar  
    12     5    14 1   
    13     6     7 ar  
    14     6    15 1   
    15     7     8 ar  
    16     7    16 1   
    17     8    17 1   
@<TRIPOS>SUBSTRUCTURE
     1 PAC         1 TEMP              0 ****  ****    0 ROOT
