@<TRIPOS>MOLECULE
PAC
   17    17     1     0     0
SMALL
bcc


@<TRIPOS>ATOM
      1 C1           0.0060     0.1500     2.1840 c          1 PAC       0.935600
      2 C2           0.0000    -0.9910     1.1350 c3         1 PAC      -0.192100
      3 C7          -0.0010    -0.5280    -0.2870 ca         1 PAC       0.013700
      4 C8           1.1940    -0.2900    -0.9640 ca         1 PAC      -0.131000
      5 C3           1.1980     0.1570    -2.2790 ca         1 PAC      -0.138000
      6 C4          -0.0000     0.3770    -2.9460 ca         1 PAC      -0.170000
      7 C5          -1.1990     0.1410    -2.2850 ca         1 PAC      -0.138000
      8 C6          -1.1950    -0.3070    -0.9700 ca         1 PAC      -0.131000
      9 O1           0.0250     1.3200     1.7660 o          1 PAC      -0.832300
     10 O2          -0.0080    -0.2250     3.3730 o          1 PAC      -0.832300
     11 H21          0.8720    -1.6260     1.3220 hc         1 PAC       0.030200
     12 H22         -0.8720    -1.6250     1.3250 hc         1 PAC       0.030200
     13 H2           2.1360    -0.4620    -0.4570 ha         1 PAC       0.122000
     14 H3           2.1400     0.3330    -2.7840 ha         1 PAC       0.104000
     15 H4          -0.0000     0.7220    -3.9720 ha         1 PAC       0.102000
     16 H5          -2.1400     0.3040    -2.7950 ha         1 PAC       0.104000
     17 H6          -2.1380    -0.4920    -0.4680 ha         1 PAC       0.122000
@<TRIPOS>BOND
     1     1     2 1   
     2     1     9 1   
     3     1    10 1   
     4     2     3 1   
     5     2    11 1   
     6     2    12 1   
     7     3     4 ar  
     8     3     8 ar  
     9     4     5 ar  
    10     4    13 1   
    11     5     6 ar  
    12     5    14 1   
    13     6     7 ar  
    14     6    15 1   
    15     7     8 ar  
    16     7    16 1   
    17     8    17 1   
@<TRIPOS>SUBSTRUCTURE
     1 PAC         1 TEMP              0 ****  ****    0 ROOT
