@<TRIPOS>MOLECULE
PAE
   10     9     1     0     0
SMALL
bcc


@<TRIPOS>ATOM
      1 P            0.0700     0.0830    -1.0120 p5         1 PAE       1.189700
      2 O1P          0.0020    -0.8870    -2.2040 o          1 PAE      -0.966500
      3 O2P         -1.1770     0.9650    -0.8730 o          1 PAE      -0.966500
      4 O3P          1.3880     0.8660    -0.9490 o          1 PAE      -0.966500
      5 C1P          0.0530    -1.0350     0.4920 c3         1 PAE      -0.348600
      6 C1          -0.1440    -0.2790     1.7960 c          1 PAE       0.960600
      7 O1           0.8500     0.3110     2.2800 o          1 PAE      -0.930800
      8 O2          -1.2910    -0.2780     2.3020 o          1 PAE      -0.930800
      9 H11          1.0000    -1.5870     0.5120 hc         1 PAE      -0.019800
     10 H12         -0.7450    -1.7720     0.3600 hc         1 PAE      -0.019800
@<TRIPOS>BOND
     1     1     2 1   
     2     1     3 1   
     3     1     4 1   
     4     1     5 1   
     5     5     6 1   
     6     5     9 1   
     7     5    10 1   
     8     6     7 1   
     9     6     8 1   
@<TRIPOS>SUBSTRUCTURE
     1 PAE         1 TEMP              0 ****  ****    0 ROOT
