@<TRIPOS>MOLECULE
PAE
   10     9     1     0     0
SMALL
No Charge or Current Charge


@<TRIPOS>ATOM
      1 P            0.0330     0.0340    -0.8910 p5         1 PAE       1.347500
      2 O1P          0.1590    -0.7960    -2.1240 o          1 PAE      -0.966500
      3 O2P         -1.2510     0.7900    -0.9450 o          1 PAE      -0.966500
      4 O3P          1.1910     0.9700    -0.8160 o          1 PAE      -0.966500
      5 C1P          0.0430    -1.1190     0.5150 c3         1 PAE      -0.506400
      6 C1          -0.0860    -0.2180     1.7110 c          1 PAE       0.750000
      7 O1           0.9330     0.1380     2.2800 o          1 PAE      -0.825500
      8 O2          -1.2000    -0.0190     2.1670 o          1 PAE      -0.825500
      9 H11          1.0140    -1.6290     0.4520 hc         1 PAE      -0.019800
     10 H12         -0.8310    -1.7640     0.3540 hc         1 PAE      -0.019800
@<TRIPOS>BOND
     1     1     2 1   
     2     1     3 1   
     3     1     4 1   
     4     1     5 1   
     5     5     6 1   
     6     5     9 1   
     7     5    10 1   
     8     6     7 1   
     9     6     8 1   
@<TRIPOS>SUBSTRUCTURE
     1 PAE         1 TEMP              0 ****  ****    0 ROOT
