@<TRIPOS>MOLECULE
PAF
   21    20     1     0     0
SMALL
No Charge or Current Charge


@<TRIPOS>ATOM
      1 O1           2.5250    -0.3490    -0.7230 o          1 PAF      -0.720500
      2 C1           1.8900     0.2100     0.1630 c          1 PAF       0.694000
      3 O2           2.3650     1.0950     0.8630 o          1 PAF      -0.720500
      4 C2           0.5200    -0.4450     0.5970 c3         1 PAF       0.025300
      5 O3           0.5470    -1.8870     0.3970 oh         1 PAF      -0.720000
      6 C3          -0.7440     0.1920    -0.0980 c3         1 PAF      -0.040000
      7 C4          -0.7140    -0.0500    -1.6380 c3         1 PAF      -0.069600
      8 C5          -0.7600     1.7280     0.1660 c3         1 PAF      -0.069600
      9 C6          -2.0290    -0.4540     0.5240 c3         1 PAF       0.157600
     10 O4          -3.2390     0.1090    -0.0120 oh         1 PAF      -0.673000
     11 H21          0.4250    -0.2490     1.6740 h1         1 PAF       0.032700
     12 HO31         1.2690    -2.0360    -0.2610 ho         1 PAF       0.477000
     13 H41          0.1910     0.3740    -2.0890 hc         1 PAF       0.029367
     14 H42         -0.7440    -1.1200    -1.8750 hc         1 PAF       0.029367
     15 H43         -1.5730     0.4230    -2.1290 hc         1 PAF       0.029367
     16 H51         -1.6510     2.2000    -0.2670 hc         1 PAF       0.029367
     17 H52         -0.7560     1.9400     1.2420 hc         1 PAF       0.029367
     18 H53          0.1100     2.2210    -0.2830 hc         1 PAF       0.029367
     19 H61         -2.0230    -1.5360     0.3390 h1         1 PAF       0.018200
     20 H62         -2.0080    -0.3120     1.6130 h1         1 PAF       0.018200
     21 HO41        -3.9860    -0.3570     0.4250 ho         1 PAF       0.415000
@<TRIPOS>BOND
     1     1     2 1   
     2     2     3 1   
     3     2     4 1   
     4     4     5 1   
     5     4     6 1   
     6     4    11 1   
     7     5    12 1   
     8     6     7 1   
     9     6     8 1   
    10     6     9 1   
    11     7    13 1   
    12     7    14 1   
    13     7    15 1   
    14     8    16 1   
    15     8    17 1   
    16     8    18 1   
    17     9    10 1   
    18     9    19 1   
    19     9    20 1   
    20    10    21 1   
@<TRIPOS>SUBSTRUCTURE
     1 PAF         1 TEMP              0 ****  ****    0 ROOT
