@<TRIPOS>MOLECULE
PAF
   21    20     1     0     0
SMALL
abcg2


@<TRIPOS>ATOM
      1 O1           2.4760    -0.7550    -0.6160 o          1 PAF      -0.720500
      2 C1           1.8500     0.0790     0.0810 c          1 PAF       0.694000
      3 O2           2.2210     1.2240     0.3810 o          1 PAF      -0.720500
      4 C2           0.4890    -0.4350     0.6120 c3         1 PAF       0.025300
      5 O3           0.4680    -1.8330     0.4500 oh         1 PAF      -0.720000
      6 C3          -0.7340     0.2260    -0.0770 c3         1 PAF      -0.040000
      7 C4          -0.6780     0.0170    -1.5920 c3         1 PAF      -0.069600
      8 C5          -0.7880     1.7220     0.2370 c3         1 PAF      -0.069600
      9 C6          -1.9800    -0.4510     0.5060 c3         1 PAF       0.157600
     10 O4          -3.1510     0.1300    -0.0290 oh         1 PAF      -0.673000
     11 H21          0.4240    -0.1960     1.6840 h1         1 PAF       0.032700
     12 HO31         1.2330    -1.9730    -0.1430 ho         1 PAF       0.477000
     13 H41          0.1710     0.5410    -2.0340 hc         1 PAF       0.029367
     14 H42         -0.5920    -1.0400    -1.8510 hc         1 PAF       0.029367
     15 H43         -1.5790     0.4000    -2.0720 hc         1 PAF       0.029367
     16 H51         -1.6920     2.1710    -0.1740 hc         1 PAF       0.029367
     17 H52         -0.7910     1.9010     1.3150 hc         1 PAF       0.029367
     18 H53          0.0670     2.2490    -0.1800 hc         1 PAF       0.029367
     19 H61         -1.9470    -1.5240     0.2920 h1         1 PAF       0.018200
     20 H62         -1.9540    -0.3410     1.6020 h1         1 PAF       0.018200
     21 HO41        -3.8970    -0.4160     0.2360 ho         1 PAF       0.415000
@<TRIPOS>BOND
     1     1     2 1   
     2     2     3 1   
     3     2     4 1   
     4     4     5 1   
     5     4     6 1   
     6     4    11 1   
     7     5    12 1   
     8     6     7 1   
     9     6     8 1   
    10     6     9 1   
    11     7    13 1   
    12     7    14 1   
    13     7    15 1   
    14     8    16 1   
    15     8    17 1   
    16     8    18 1   
    17     9    10 1   
    18     9    19 1   
    19     9    20 1   
    20    10    21 1   
@<TRIPOS>SUBSTRUCTURE
     1 PAF         1 TEMP              0 ****  ****    0 ROOT
