@<TRIPOS>MOLECULE
PAH
   13    12     1     0     0
SMALL
No Charge or Current Charge


@<TRIPOS>ATOM
      1 C1          -0.3720    -1.0940    -0.0060 c3         1 PAH      -0.474400
      2 C2          -0.3230    -0.4000     1.3230 c          1 PAH       0.625100
      3 N3           0.8490    -0.5700     2.0420 ns         1 PAH      -0.378400
      4 O3           1.0800     0.1840     3.2540 oh         1 PAH      -0.491100
      5 O2          -1.2680     0.2290     1.7820 o          1 PAH      -0.693100
      6 O1P          1.5850     0.5410    -0.8050 o          1 PAH      -0.917500
      7 O2P          0.2630    -0.5770    -2.5280 o          1 PAH      -0.917500
      8 O3P         -0.7170     1.2670    -1.2630 o          1 PAH      -0.917500
      9 P            0.2180     0.1100    -1.2070 p5         1 PAH       1.294500
     10 H11          0.3390    -1.9250    -0.0590 hc         1 PAH       0.042700
     11 H12         -1.3900    -1.3900    -0.2770 hc         1 PAH       0.042700
     12 HN3          1.6750    -0.8960     1.5410 hn         1 PAH       0.375500
     13 HO3          0.3700     0.8680     3.2050 ho         1 PAH       0.408000
@<TRIPOS>BOND
     1     1     2 1   
     2     1     9 1   
     3     1    10 1   
     4     1    11 1   
     5     2     3 1   
     6     2     5 2   
     7     3     4 1   
     8     3    12 1   
     9     4    13 1   
    10     6     9 1   
    11     7     9 1   
    12     8     9 1   
@<TRIPOS>SUBSTRUCTURE
     1 PAH         1 TEMP              0 ****  ****    0 ROOT
