@<TRIPOS>MOLECULE
PAH
   13    12     1     0     0
SMALL
bcc


@<TRIPOS>ATOM
      1 C1          -0.4150    -1.1180     0.0050 c3         1 PAH      -0.316600
      2 C2          -0.4620    -0.6120     1.4010 c          1 PAH       0.692100
      3 N3           0.7800    -0.4430     1.9250 ns         1 PAH      -0.445400
      4 O3           0.9290     0.1740     3.1360 oh         1 PAH      -0.452100
      5 O2          -1.4810    -0.3270     2.0160 o          1 PAH      -0.693100
      6 O1P          1.8040     0.2350    -0.6630 o          1 PAH      -0.917500
      7 O2P          0.2230    -0.5190    -2.5490 o          1 PAH      -0.917500
      8 O3P         -0.4430     1.4300    -0.9920 o          1 PAH      -0.917500
      9 P            0.3560     0.1410    -1.1770 p5         1 PAH       1.136700
     10 H11          0.2190    -2.0070    -0.0660 hc         1 PAH       0.042700
     11 H12         -1.4140    -1.4180    -0.3160 hc         1 PAH       0.042700
     12 HN3          1.5380    -0.2890     1.2630 hn         1 PAH       0.375500
     13 HO3          0.6750     1.1000     3.0200 ho         1 PAH       0.369000
@<TRIPOS>BOND
     1     1     2 1   
     2     1     9 1   
     3     1    10 1   
     4     1    11 1   
     5     2     3 1   
     6     2     5 2   
     7     3     4 1   
     8     3    12 1   
     9     4    13 1   
    10     6     9 1   
    11     7     9 1   
    12     8     9 1   
@<TRIPOS>SUBSTRUCTURE
     1 PAH         1 TEMP              0 ****  ****    0 ROOT
