@<TRIPOS>MOLECULE
PAK
   32    35     1     0     0
SMALL
abcg2


@<TRIPOS>ATOM
      1 N           -1.6650    -0.5610    -2.3390 ns         1 PAK      -0.159000
      2 C           -2.3500    -0.1280    -1.2410 c          1 PAK       0.577000
      3 O           -3.4490    -0.5800    -0.9800 o          1 PAK      -0.536000
      4 C1          -1.6650     0.9170    -0.3940 c3         1 PAK      -0.082200
      5 C2          -0.3770     0.3820     0.1270 cc         1 PAK      -0.120400
      6 C3           0.0430     0.1670     1.4730 ca         1 PAK      -0.096800
      7 C4           1.3750    -0.3110     1.4110 ca         1 PAK      -0.022200
      8 N1           1.7280    -0.3760     0.1030 na         1 PAK      -0.207700
      9 C5           0.6720     0.0280    -0.6760 cd         1 PAK       0.005700
     10 C6           0.7130     0.0960    -2.1230 ca         1 PAK      -0.069800
     11 C7          -0.4430    -0.1430    -2.8850 ca         1 PAK       0.006000
     12 C8          -0.3640    -0.0750    -4.2770 ca         1 PAK      -0.152000
     13 C9           0.8290     0.2180    -4.9110 ca         1 PAK      -0.074000
     14 C10          1.9740     0.4610    -4.1620 ca         1 PAK      -0.126000
     15 C11          1.9080     0.4010    -2.7840 ca         1 PAK      -0.082000
     16 C12          2.1040    -0.6370     2.5550 ca         1 PAK      -0.134000
     17 C13          1.4880    -0.4680     3.7740 ca         1 PAK      -0.054000
     18 C14          0.1650     0.0170     3.8520 ca         1 PAK      -0.053000
     19 C15         -0.4370     0.1790     5.1330 cg         1 PAK       0.329000
     20 N2          -0.9220     0.3090     6.1710 n1         1 PAK      -0.462000
     21 C16         -0.5640     0.3380     2.7130 ca         1 PAK      -0.009000
     22 H1          -2.2020    -1.1770    -2.9340 hn         1 PAK       0.154000
     23 H6          -2.3370     1.1970     0.4150 hc         1 PAK       0.078700
     24 H7          -1.4940     1.8150    -0.9990 hc         1 PAK       0.078700
     25 H2           2.5980    -0.7480    -0.2440 hn         1 PAK       0.356000
     26 H8          -1.2530    -0.2670    -4.8650 ha         1 PAK       0.122000
     27 H9           0.8610     0.2620    -5.9920 ha         1 PAK       0.121000
     28 H10          2.9090     0.7020    -4.6490 ha         1 PAK       0.121000
     29 H11          2.7970     0.6050    -2.2000 ha         1 PAK       0.113000
     30 H3           3.1190    -1.0060     2.4920 ha         1 PAK       0.121000
     31 H4           2.0190    -0.7080     4.6840 ha         1 PAK       0.125000
     32 H5          -1.5780     0.7080     2.7970 ha         1 PAK       0.131000
@<TRIPOS>BOND
     1     1     2 1   
     2     1    11 1   
     3     1    22 1   
     4     2     3 2   
     5     2     4 1   
     6     4     5 1   
     7     4    23 1   
     8     4    24 1   
     9     5     6 1   
    10     5     9 2   
    11     6     7 ar  
    12     6    21 ar  
    13     7     8 1   
    14     7    16 ar  
    15     8     9 1   
    16     8    25 1   
    17     9    10 1   
    18    10    11 ar  
    19    10    15 ar  
    20    11    12 ar  
    21    12    13 ar  
    22    12    26 1   
    23    13    14 ar  
    24    13    27 1   
    25    14    15 ar  
    26    14    28 1   
    27    15    29 1   
    28    16    17 ar  
    29    16    30 1   
    30    17    18 ar  
    31    17    31 1   
    32    18    19 1   
    33    18    21 ar  
    34    19    20 3   
    35    21    32 1   
@<TRIPOS>SUBSTRUCTURE
     1 PAK         1 TEMP              0 ****  ****    0 ROOT
