@<TRIPOS>MOLECULE
PAK
   32    35     1     0     0
SMALL
No Charge or Current Charge


@<TRIPOS>ATOM
      1 N           -1.8160    -0.2560    -2.4840 ns         1 PAK      -0.159000
      2 C           -2.3690    -0.1690    -1.2230 c          1 PAK       0.577000
      3 O           -3.3100    -0.8760    -0.8840 o          1 PAK      -0.536000
      4 C1          -1.7230     0.8290    -0.2810 c3         1 PAK      -0.082200
      5 C2          -0.3890     0.3290     0.1640 cc         1 PAK      -0.120400
      6 C3           0.0780     0.1360     1.5070 ca         1 PAK      -0.096800
      7 C4           1.3900    -0.2290     1.4310 ca         1 PAK      -0.022200
      8 N1           1.8050    -0.2870     0.1140 na         1 PAK      -0.207700
      9 C5           0.6840     0.0670    -0.6780 cd         1 PAK       0.005700
     10 C6           0.6770     0.0970    -2.1610 ca         1 PAK      -0.069800
     11 C7          -0.5040     0.0150    -2.9670 ca         1 PAK       0.006000
     12 C8          -0.3880     0.0610    -4.3710 ca         1 PAK      -0.152000
     13 C9           0.8600     0.1950    -4.9940 ca         1 PAK      -0.074000
     14 C10          2.0190     0.2610    -4.2140 ca         1 PAK      -0.126000
     15 C11          1.9280     0.2040    -2.8160 ca         1 PAK      -0.082000
     16 C12          2.1440    -0.4940     2.5810 ca         1 PAK      -0.134000
     17 C13          1.5110    -0.3720     3.8360 ca         1 PAK      -0.054000
     18 C14          0.1470     0.0080     3.9160 ca         1 PAK      -0.053000
     19 C15         -0.4920     0.1290     5.1970 cg         1 PAK       0.329000
     20 N2          -1.0190     0.2320     6.2340 n1         1 PAK      -0.462000
     21 C16         -0.5860     0.2670     2.7360 ca         1 PAK      -0.009000
     22 H1          -2.3760    -0.7940    -3.1330 hn         1 PAK       0.154000
     23 H6          -2.3850     1.0290     0.5680 hc         1 PAK       0.078700
     24 H7          -1.5270     1.7520    -0.8380 hc         1 PAK       0.078700
     25 H2           2.7220    -0.5590    -0.2210 hn         1 PAK       0.356000
     26 H8          -1.2780    -0.0210    -4.9910 ha         1 PAK       0.122000
     27 H9           0.9290     0.2320    -6.0800 ha         1 PAK       0.121000
     28 H10          2.9910     0.3570    -4.6930 ha         1 PAK       0.121000
     29 H11          2.8470     0.2730    -2.2410 ha         1 PAK       0.113000
     30 H3           3.1900    -0.7850     2.5110 ha         1 PAK       0.121000
     31 H4           2.0770    -0.5730     4.7430 ha         1 PAK       0.125000
     32 H5          -1.6330     0.5590     2.7790 ha         1 PAK       0.131000
@<TRIPOS>BOND
     1     1     2 1   
     2     1    11 1   
     3     1    22 1   
     4     2     3 2   
     5     2     4 1   
     6     4     5 1   
     7     4    23 1   
     8     4    24 1   
     9     5     6 1   
    10     5     9 2   
    11     6     7 ar  
    12     6    21 ar  
    13     7     8 1   
    14     7    16 ar  
    15     8     9 1   
    16     8    25 1   
    17     9    10 1   
    18    10    11 ar  
    19    10    15 ar  
    20    11    12 ar  
    21    12    13 ar  
    22    12    26 1   
    23    13    14 ar  
    24    13    27 1   
    25    14    15 ar  
    26    14    28 1   
    27    15    29 1   
    28    16    17 ar  
    29    16    30 1   
    30    17    18 ar  
    31    17    31 1   
    32    18    19 1   
    33    18    21 ar  
    34    19    20 3   
    35    21    32 1   
@<TRIPOS>SUBSTRUCTURE
     1 PAK         1 TEMP              0 ****  ****    0 ROOT
