@<TRIPOS>MOLECULE
PAL
   22    21     1     0     0
SMALL
No Charge or Current Charge


@<TRIPOS>ATOM
      1 P            0.3680    -0.0260    -2.9450 p5         1 PAL       1.316500
      2 O1P         -1.0190     0.3920    -2.5990 o          1 PAL      -0.935500
      3 O2P          0.9270     0.8890    -3.9800 o          1 PAL      -0.935500
      4 O3P          0.3960    -1.4280    -3.4490 o          1 PAL      -0.935500
      5 C1P          1.4220     0.1240    -1.4800 c3         1 PAL      -0.474400
      6 C1           0.6860    -0.5580    -0.3580 c          1 PAL       0.631100
      7 O1           0.7480    -1.7650    -0.1640 o          1 PAL      -0.784100
      8 N2           0.0070     0.2970     0.4760 ns         1 PAL      -0.454900
      9 C2          -0.7310    -0.0770     1.7050 c3         1 PAL       0.017700
     10 C4          -2.1400     0.6110     1.7130 c          1 PAL       0.706000
     11 O2          -3.1330    -0.0920     1.8470 o          1 PAL      -0.781500
     12 O3          -2.2070     1.8180     1.5170 o          1 PAL      -0.781500
     13 C3           0.0670     0.2520     3.0010 c3         1 PAL      -0.180400
     14 C5           1.3470    -0.5970     3.1210 c          1 PAL       0.724000
     15 O4           1.2670    -1.6900     3.6620 o          1 PAL      -0.792000
     16 O5           2.4020    -0.1260     2.7200 o          1 PAL      -0.792000
     17 H1P1         1.5450     1.1980    -1.2920 hc         1 PAL       0.005700
     18 H1P2         2.3830    -0.3620    -1.6880 hc         1 PAL       0.005700
     19 HN2         -0.0060     1.2680     0.1930 hn         1 PAL       0.387500
     20 H2          -0.9080    -1.1600     1.6850 h1         1 PAL       0.031700
     21 H31         -0.6200     0.0010     3.8190 hc         1 PAL       0.009700
     22 H32          0.3110     1.3200     2.9490 hc         1 PAL       0.009700
@<TRIPOS>BOND
     1     1     2 1   
     2     1     3 1   
     3     1     4 1   
     4     1     5 1   
     5     5     6 1   
     6     5    17 1   
     7     5    18 1   
     8     6     7 2   
     9     6     8 1   
    10     8     9 1   
    11     8    19 1   
    12     9    10 1   
    13     9    13 1   
    14     9    20 1   
    15    10    11 1   
    16    10    12 1   
    17    13    14 1   
    18    13    21 1   
    19    13    22 1   
    20    14    15 1   
    21    14    16 1   
@<TRIPOS>SUBSTRUCTURE
     1 PAL         1 TEMP              0 ****  ****    0 ROOT
