@<TRIPOS>MOLECULE
PAL
   22    21     1     0     0
SMALL
abcg2


@<TRIPOS>ATOM
      1 P            0.7860     0.9170    -2.3940 p5         1 PAL       1.316500
      2 O1P          1.0220     1.8350    -1.1730 o          1 PAL      -0.935500
      3 O2P          1.8650     1.0600    -3.4720 o          1 PAL      -0.935500
      4 O3P         -0.6450     0.9470    -2.9280 o          1 PAL      -0.935500
      5 C1P          1.0460    -0.8080    -1.7070 c3         1 PAL      -0.474400
      6 C1           0.2340    -1.1820    -0.4910 c          1 PAL       0.631100
      7 O1          -0.2870    -2.2940    -0.3580 o          1 PAL      -0.784100
      8 N2           0.1870    -0.2450     0.4600 ns         1 PAL      -0.454900
      9 C2          -0.5120    -0.4540     1.7010 c3         1 PAL       0.017700
     10 C4          -2.0410    -0.6060     1.5420 c          1 PAL       0.706000
     11 O2          -2.6120    -1.2340     2.4630 o          1 PAL      -0.781500
     12 O3          -2.5870    -0.0640     0.5670 o          1 PAL      -0.781500
     13 C3          -0.2120     0.7080     2.6410 c3         1 PAL      -0.180400
     14 C5           1.2720     0.8440     3.0310 c          1 PAL       0.724000
     15 O4           1.8890    -0.2110     3.2830 o          1 PAL      -0.792000
     16 O5           1.7340     2.0010     3.1010 o          1 PAL      -0.792000
     17 H1P1         2.1030    -0.8940    -1.4300 hc         1 PAL       0.005700
     18 H1P2         0.8730    -1.5570    -2.4850 hc         1 PAL       0.005700
     19 HN2          0.4870     0.6910     0.1620 hn         1 PAL       0.387500
     20 H2          -0.1300    -1.3640     2.1710 h1         1 PAL       0.031700
     21 H31         -0.7860     0.5550     3.5620 hc         1 PAL       0.009700
     22 H32         -0.5750     1.6440     2.2050 hc         1 PAL       0.009700
@<TRIPOS>BOND
     1     1     2 1   
     2     1     3 1   
     3     1     4 1   
     4     1     5 1   
     5     5     6 1   
     6     5    17 1   
     7     5    18 1   
     8     6     7 2   
     9     6     8 1   
    10     8     9 1   
    11     8    19 1   
    12     9    10 1   
    13     9    13 1   
    14     9    20 1   
    15    10    11 1   
    16    10    12 1   
    17    13    14 1   
    18    13    21 1   
    19    13    22 1   
    20    14    15 1   
    21    14    16 1   
@<TRIPOS>SUBSTRUCTURE
     1 PAL         1 TEMP              0 ****  ****    0 ROOT
