@<TRIPOS>MOLECULE
PAM
   47    46     1     0     0
SMALL
No Charge or Current Charge


@<TRIPOS>ATOM
      1 C1           1.6160    -0.4590    -6.8680 c          1 PAM       0.716000
      2 O1           2.3800    -1.4130    -6.8820 o          1 PAM      -0.744000
      3 O2           0.8770    -0.1710    -7.7970 o          1 PAM      -0.744000
      4 C2           1.5370     0.3910    -5.5860 c3         1 PAM      -0.203400
      5 C3           0.4720    -0.1900    -4.6240 c3         1 PAM      -0.054400
      6 C4           0.3360     0.6140    -3.3110 c3         1 PAM      -0.079400
      7 C5          -0.7280     0.0330    -2.3540 c3         1 PAM      -0.074400
      8 C6          -0.8640     0.8360    -1.0420 c3         1 PAM      -0.076400
      9 C7          -1.9270     0.2550    -0.0840 c3         1 PAM      -0.071400
     10 C8          -2.0630     1.0540     1.2280 c3         1 PAM      -0.048200
     11 C9          -3.1060     0.4590     2.1550 c2         1 PAM      -0.204200
     12 C10         -2.8860    -0.3800     3.1830 c2         1 PAM      -0.227200
     13 C11         -1.5500    -0.9500     3.6220 c3         1 PAM      -0.043200
     14 C12         -0.9260    -0.1430     4.7790 c3         1 PAM      -0.070400
     15 C13          0.4410    -0.6970     5.2380 c3         1 PAM      -0.076400
     16 C14          1.0640     0.1140     6.3950 c3         1 PAM      -0.074400
     17 C15          2.4310    -0.4390     6.8540 c3         1 PAM      -0.076400
     18 C16          3.0530     0.3700     8.0080 c3         1 PAM      -0.087100
     19 H21          1.2060     1.4100    -5.8210 hc         1 PAM       0.014200
     20 H22          2.4880     0.3510    -5.0400 hc         1 PAM       0.014200
     21 H31          0.7310    -1.2290    -4.3840 hc         1 PAM       0.038200
     22 H32         -0.4990    -0.2130    -5.1340 hc         1 PAM       0.038200
     23 H41          0.0750     1.6530    -3.5500 hc         1 PAM       0.023700
     24 H42          1.3060     0.6360    -2.8000 hc         1 PAM       0.023700
     25 H51         -0.4680    -1.0060    -2.1140 hc         1 PAM       0.034700
     26 H52         -1.6990     0.0100    -2.8640 hc         1 PAM       0.034700
     27 H61         -1.1240     1.8750    -1.2810 hc         1 PAM       0.031700
     28 H62          0.1070     0.8580    -0.5310 hc         1 PAM       0.031700
     29 H71         -1.6670    -0.7840     0.1560 hc         1 PAM       0.038200
     30 H72         -2.8990     0.2320    -0.5920 hc         1 PAM       0.038200
     31 H81         -2.3290     2.0930     0.9940 hc         1 PAM       0.041200
     32 H82         -1.0850     1.0980     1.7220 hc         1 PAM       0.041200
     33 H9          -4.1250     0.7870     1.9380 ha         1 PAM       0.162000
     34 H10         -3.7290    -0.7280     3.7820 ha         1 PAM       0.158000
     35 H111        -0.8440    -0.9740     2.7830 hc         1 PAM       0.045700
     36 H112        -1.6790    -1.9930     3.9350 hc         1 PAM       0.045700
     37 H121        -1.6200    -0.1400     5.6290 hc         1 PAM       0.036700
     38 H122        -0.8040     0.9000     4.4620 hc         1 PAM       0.036700
     39 H131         1.1330    -0.7000     4.3870 hc         1 PAM       0.038700
     40 H132         0.3180    -1.7410     5.5550 hc         1 PAM       0.038700
     41 H141         0.3720     0.1160     7.2470 hc         1 PAM       0.035700
     42 H142         1.1860     1.1570     6.0780 hc         1 PAM       0.035700
     43 H151         3.1260    -0.4410     6.0050 hc         1 PAM       0.037700
     44 H152         2.3120    -1.4820     7.1730 hc         1 PAM       0.037700
     45 H161         4.0190    -0.0590     8.2980 hc         1 PAM       0.029033
     46 H162         3.2170     1.4120     7.7070 hc         1 PAM       0.029033
     47 H163         2.3960     0.3620     8.8860 hc         1 PAM       0.029033
@<TRIPOS>BOND
     1     1     2 1   
     2     1     3 1   
     3     1     4 1   
     4     4     5 1   
     5     4    19 1   
     6     4    20 1   
     7     5     6 1   
     8     5    21 1   
     9     5    22 1   
    10     6     7 1   
    11     6    23 1   
    12     6    24 1   
    13     7     8 1   
    14     7    25 1   
    15     7    26 1   
    16     8     9 1   
    17     8    27 1   
    18     8    28 1   
    19     9    10 1   
    20     9    29 1   
    21     9    30 1   
    22    10    11 1   
    23    10    31 1   
    24    10    32 1   
    25    11    12 2   
    26    11    33 1   
    27    12    13 1   
    28    12    34 1   
    29    13    14 1   
    30    13    35 1   
    31    13    36 1   
    32    14    15 1   
    33    14    37 1   
    34    14    38 1   
    35    15    16 1   
    36    15    39 1   
    37    15    40 1   
    38    16    17 1   
    39    16    41 1   
    40    16    42 1   
    41    17    18 1   
    42    17    43 1   
    43    17    44 1   
    44    18    45 1   
    45    18    46 1   
    46    18    47 1   
@<TRIPOS>SUBSTRUCTURE
     1 PAM         1 TEMP              0 ****  ****    0 ROOT
