@<TRIPOS>MOLECULE
PAM
   47    46     1     0     0
SMALL
abcg2


@<TRIPOS>ATOM
      1 C1           1.4930    -0.5180    -7.0880 c          1 PAM       0.716000
      2 O1           2.3390    -0.0600    -7.8860 o          1 PAM      -0.744000
      3 O2           0.8380    -1.5700    -7.2350 o          1 PAM      -0.744000
      4 C2           1.2400     0.3160    -5.8210 c3         1 PAM      -0.203400
      5 C3           0.3560    -0.3190    -4.7600 c3         1 PAM      -0.054400
      6 C4           0.1730     0.5750    -3.5390 c3         1 PAM      -0.079400
      7 C5          -0.7070    -0.0420    -2.4590 c3         1 PAM      -0.074400
      8 C6          -0.8620     0.8520    -1.2350 c3         1 PAM      -0.076400
      9 C7          -1.7770     0.2680    -0.1670 c3         1 PAM      -0.071400
     10 C8          -1.8710     1.1540     1.0770 c3         1 PAM      -0.048200
     11 C9          -2.8670     0.6460     2.0760 c2         1 PAM      -0.204200
     12 C10         -2.6100    -0.1200     3.1340 c2         1 PAM      -0.227200
     13 C11         -1.2720    -0.6300     3.5710 c3         1 PAM      -0.043200
     14 C12         -0.7970     0.0030     4.8800 c3         1 PAM      -0.070400
     15 C13          0.5060    -0.6010     5.3860 c3         1 PAM      -0.076400
     16 C14          1.0070     0.0310     6.6780 c3         1 PAM      -0.074400
     17 C15          2.2940    -0.6020     7.1940 c3         1 PAM      -0.076400
     18 C16          2.7970     0.0310     8.4840 c3         1 PAM      -0.087100
     19 H21          0.8030     1.2740    -6.1290 hc         1 PAM       0.014200
     20 H22          2.2090     0.5800    -5.3820 hc         1 PAM       0.014200
     21 H31          0.7850    -1.2760    -4.4450 hc         1 PAM       0.038200
     22 H32         -0.6230    -0.5560    -5.1860 hc         1 PAM       0.038200
     23 H41         -0.2580     1.5330    -3.8490 hc         1 PAM       0.023700
     24 H42          1.1550     0.8130    -3.1120 hc         1 PAM       0.023700
     25 H51         -0.2870    -1.0070    -2.1550 hc         1 PAM       0.034700
     26 H52         -1.6960    -0.2610    -2.8780 hc         1 PAM       0.034700
     27 H61         -1.2500     1.8290    -1.5450 hc         1 PAM       0.031700
     28 H62          0.1260     1.0450    -0.8020 hc         1 PAM       0.031700
     29 H71         -1.4170    -0.7230     0.1290 hc         1 PAM       0.038200
     30 H72         -2.7770     0.1160    -0.5870 hc         1 PAM       0.038200
     31 H81         -2.1590     2.1640     0.7710 hc         1 PAM       0.041200
     32 H82         -0.8780     1.2440     1.5260 hc         1 PAM       0.041200
     33 H9          -3.9020     0.9190     1.8870 ha         1 PAM       0.162000
     34 H10         -3.4450    -0.4100     3.7670 ha         1 PAM       0.158000
     35 H111        -0.5190    -0.4740     2.7950 hc         1 PAM       0.045700
     36 H112        -1.3400    -1.7140     3.7120 hc         1 PAM       0.045700
     37 H121        -1.5740    -0.1120     5.6440 hc         1 PAM       0.036700
     38 H122        -0.6740     1.0800     4.7310 hc         1 PAM       0.036700
     39 H131         1.2760    -0.5050     4.6120 hc         1 PAM       0.038700
     40 H132         0.3660    -1.6770     5.5400 hc         1 PAM       0.038700
     41 H141         0.2310    -0.0480     7.4480 hc         1 PAM       0.035700
     42 H142         1.1680     1.1030     6.5210 hc         1 PAM       0.035700
     43 H151         3.0680    -0.5290     6.4230 hc         1 PAM       0.037700
     44 H152         2.1290    -1.6720     7.3550 hc         1 PAM       0.037700
     45 H161         3.7060    -0.4560     8.8390 hc         1 PAM       0.029033
     46 H162         3.0250     1.0900     8.3440 hc         1 PAM       0.029033
     47 H163         2.0510    -0.0430     9.2770 hc         1 PAM       0.029033
@<TRIPOS>BOND
     1     1     2 1   
     2     1     3 1   
     3     1     4 1   
     4     4     5 1   
     5     4    19 1   
     6     4    20 1   
     7     5     6 1   
     8     5    21 1   
     9     5    22 1   
    10     6     7 1   
    11     6    23 1   
    12     6    24 1   
    13     7     8 1   
    14     7    25 1   
    15     7    26 1   
    16     8     9 1   
    17     8    27 1   
    18     8    28 1   
    19     9    10 1   
    20     9    29 1   
    21     9    30 1   
    22    10    11 1   
    23    10    31 1   
    24    10    32 1   
    25    11    12 2   
    26    11    33 1   
    27    12    13 1   
    28    12    34 1   
    29    13    14 1   
    30    13    35 1   
    31    13    36 1   
    32    14    15 1   
    33    14    37 1   
    34    14    38 1   
    35    15    16 1   
    36    15    39 1   
    37    15    40 1   
    38    16    17 1   
    39    16    41 1   
    40    16    42 1   
    41    17    18 1   
    42    17    43 1   
    43    17    44 1   
    44    18    45 1   
    45    18    46 1   
    46    18    47 1   
@<TRIPOS>SUBSTRUCTURE
     1 PAM         1 TEMP              0 ****  ****    0 ROOT
