@<TRIPOS>MOLECULE
PAO
   28    27     1     0     0
SMALL
No Charge or Current Charge


@<TRIPOS>ATOM
      1 N            5.3740     4.1000   -23.6670 n8         1 PAO      -0.978200
      2 CA           4.0800     4.1210   -22.8960 c3         1 PAO       0.021500
      3 CB           3.1550     2.9690   -23.3840 c3         1 PAO      -0.045400
      4 CG           1.7140     3.0370   -22.8240 c3         1 PAO      -0.092400
      5 CD           0.8060     1.9230   -23.3780 c3         1 PAO       0.120000
      6 NE          -0.5550     2.0150   -22.8570 ns         1 PAO      -0.518900
      7 C            4.2060     4.1700   -21.3100 c          1 PAO       0.716000
      8 O            4.0310     5.2470   -20.7530 o          1 PAO      -0.732500
      9 OXT          4.5170     3.1530   -20.7020 o          1 PAO      -0.732500
     10 C1          -1.6340     1.3340   -23.3540 c          1 PAO       0.632100
     11 O1          -1.5490     0.5930   -24.3240 o          1 PAO      -0.768100
     12 C1P         -2.9380     1.6500   -22.6810 c3         1 PAO      -0.473400
     13 P           -3.2150     0.3410   -21.4670 p5         1 PAO       1.302500
     14 O1P         -2.0060     0.2130   -20.6060 o          1 PAO      -0.920500
     15 O2P         -3.5180    -0.9400   -22.1640 o          1 PAO      -0.920500
     16 O3P         -4.3840     0.7570   -20.6420 o          1 PAO      -0.920500
     17 HN1          5.9050     4.9530   -23.4550 hn         1 PAO       0.346000
     18 HN2          5.1710     4.1700   -24.6690 hn         1 PAO       0.346000
     19 HA           3.5880     5.0570   -23.1920 h1         1 PAO       0.000700
     20 HB1          3.1000     2.9950   -24.4800 hc         1 PAO       0.013700
     21 HB2          3.5990     2.0020   -23.1150 hc         1 PAO       0.013700
     22 HG1          1.7400     2.9640   -21.7300 hc         1 PAO       0.063700
     23 HG2          1.2770     4.0120   -23.0730 hc         1 PAO       0.063700
     24 HD1          0.7700     1.9970   -24.4730 h1         1 PAO       0.004200
     25 HD2          1.2180     0.9420   -23.1080 h1         1 PAO       0.004200
     26 HNE         -0.7340     2.5940   -22.0460 hn         1 PAO       0.394500
     27 HP1         -2.8880     2.5830   -22.1090 hc         1 PAO       0.029700
     28 HP2         -3.7720     1.6430   -23.3900 hc         1 PAO       0.029700
@<TRIPOS>BOND
     1     1     2 1   
     2     1    17 1   
     3     1    18 1   
     4     2     3 1   
     5     2     7 1   
     6     2    19 1   
     7     3     4 1   
     8     3    20 1   
     9     3    21 1   
    10     4     5 1   
    11     4    22 1   
    12     4    23 1   
    13     5     6 1   
    14     5    24 1   
    15     5    25 1   
    16     6    10 1   
    17     6    26 1   
    18     7     8 1   
    19     7     9 1   
    20    10    11 2   
    21    10    12 1   
    22    12    13 1   
    23    12    27 1   
    24    12    28 1   
    25    13    14 1   
    26    13    15 1   
    27    13    16 1   
@<TRIPOS>SUBSTRUCTURE
     1 PAO         1 TEMP              0 ****  ****    0 ROOT
