@<TRIPOS>MOLECULE
PAO
   28    27     1     0     0
SMALL
abcg2


@<TRIPOS>ATOM
      1 N            5.2190     4.1010   -23.4260 n8         1 PAO      -0.978200
      2 CA           3.9230     4.0270   -22.7300 c3         1 PAO       0.021500
      3 CB           3.0160     3.0470   -23.4760 c3         1 PAO      -0.045400
      4 CG           1.6000     2.9760   -22.9160 c3         1 PAO      -0.092400
      5 CD           0.7140     2.0130   -23.6940 c3         1 PAO       0.120000
      6 NE          -0.6210     1.9860   -23.1240 ns         1 PAO      -0.518900
      7 C            4.1160     3.5850   -21.2550 c          1 PAO       0.716000
      8 O            3.5670     4.3050   -20.3790 o          1 PAO      -0.732500
      9 OXT          4.7770     2.5380   -21.0390 o          1 PAO      -0.732500
     10 C1          -1.6450     1.3040   -23.6640 c          1 PAO       0.632100
     11 O1          -1.5500     0.7010   -24.7470 o          1 PAO      -0.768100
     12 C1P         -2.9210     1.3410   -22.8580 c3         1 PAO      -0.473400
     13 P           -2.7240     1.0050   -21.0250 p5         1 PAO       1.302500
     14 O1P         -1.7170     2.0710   -20.5500 o          1 PAO      -0.920500
     15 O2P         -2.1830    -0.4210   -20.9180 o          1 PAO      -0.920500
     16 O3P         -4.1240     1.1900   -20.4430 o          1 PAO      -0.920500
     17 HN1          5.8210     4.7700   -22.9560 hn         1 PAO       0.346000
     18 HN2          5.0690     4.4710   -24.3600 hn         1 PAO       0.346000
     19 HA           3.4230     5.0030   -22.7000 h1         1 PAO       0.000700
     20 HB1          2.9730     3.3490   -24.5290 hc         1 PAO       0.013700
     21 HB2          3.4830     2.0580   -23.4470 hc         1 PAO       0.013700
     22 HG1          1.6300     2.6630   -21.8670 hc         1 PAO       0.063700
     23 HG2          1.1450     3.9720   -22.9320 hc         1 PAO       0.063700
     24 HD1          0.6520     2.3160   -24.7420 h1         1 PAO       0.004200
     25 HD2          1.1550     1.0090   -23.6830 h1         1 PAO       0.004200
     26 HNE         -0.7610     2.2500   -22.1420 hn         1 PAO       0.394500
     27 HP1         -3.3610     2.3390   -22.9530 hc         1 PAO       0.029700
     28 HP2         -3.6200     0.6270   -23.2940 hc         1 PAO       0.029700
@<TRIPOS>BOND
     1     1     2 1   
     2     1    17 1   
     3     1    18 1   
     4     2     3 1   
     5     2     7 1   
     6     2    19 1   
     7     3     4 1   
     8     3    20 1   
     9     3    21 1   
    10     4     5 1   
    11     4    22 1   
    12     4    23 1   
    13     5     6 1   
    14     5    24 1   
    15     5    25 1   
    16     6    10 1   
    17     6    26 1   
    18     7     8 1   
    19     7     9 1   
    20    10    11 2   
    21    10    12 1   
    22    12    13 1   
    23    12    27 1   
    24    12    28 1   
    25    13    14 1   
    26    13    15 1   
    27    13    16 1   
@<TRIPOS>SUBSTRUCTURE
     1 PAO         1 TEMP              0 ****  ****    0 ROOT
