@<TRIPOS>MOLECULE
PAQ
   37    38     1     0     0
SMALL
No Charge or Current Charge


@<TRIPOS>ATOM
      1 N           67.2750    76.2100    -3.3470 n8         1 PAQ      -0.916800
      2 CA          66.0880    75.3200    -3.0610 c3         1 PAQ       0.009500
      3 CB          66.2640    74.5840    -1.6950 c3         1 PAQ      -0.023400
      4 CG          67.4110    73.5200    -1.5820 c6         1 PAQ      -0.153500
      5 CD1         67.2500    72.4610    -2.6890 c          1 PAQ       0.593300
      6 O2          66.3800    71.6020    -2.6410 o          1 PAQ      -0.543100
      7 CD2         68.7830    74.1950    -1.5580 c2         1 PAQ      -0.035200
      8 CE1         68.2560    72.4830    -3.7710 ce         1 PAQ      -0.336200
      9 CE2         69.6960    74.1060    -2.5640 cf         1 PAQ      -0.052000
     10 CZ          69.3700    73.2430    -3.7080 cf         1 PAQ       0.205100
     11 OH          70.2890    73.1590    -4.6780 oh         1 PAQ      -0.499100
     12 N1          70.9150    74.7990    -2.5530 nu         1 PAQ      -0.481800
     13 N2          71.4050    75.3580    -1.3030 nu         1 PAQ      -0.617700
     14 C1          71.6400    76.7220    -1.2140 ca         1 PAQ       0.613200
     15 C2          70.8170    77.6830    -1.8190 ca         1 PAQ      -0.288300
     16 C3          71.1350    79.0410    -1.6740 ca         1 PAQ      -0.049000
     17 C4          72.2740    79.3570    -0.9180 ca         1 PAQ      -0.297300
     18 C5          73.0340    78.3240    -0.3450 ca         1 PAQ       0.432200
     19 N3          72.7230    77.0180    -0.4880 nb         1 PAQ      -0.746000
     20 C           64.6430    75.9880    -3.1860 c          1 PAQ       0.929600
     21 O           64.0930    75.9820    -4.2840 o          1 PAQ      -0.830300
     22 OXT         64.1150    76.4830    -2.1940 o          1 PAQ      -0.830300
     23 H           67.2430    76.5130    -4.3270 hn         1 PAQ       0.332800
     24 H2          68.1330    75.6560    -3.2690 hn         1 PAQ       0.332800
     25 HA          66.1080    74.5460    -3.8400 h1         1 PAQ       0.017700
     26 HB2         66.3740    75.3330    -0.9010 hc         1 PAQ       0.060700
     27 HB3         65.3170    74.0730    -1.4780 hc         1 PAQ       0.060700
     28 HG          67.2340    73.0080    -0.6270 hc         1 PAQ       0.072700
     29 HD2         68.9820    74.8210    -0.6880 ha         1 PAQ       0.150000
     30 HE1         68.1010    71.8060    -4.6070 ha         1 PAQ       0.153000
     31 HH          71.0890    73.5900    -4.3120 ho         1 PAQ       0.443000
     32 HN1         71.0130    75.4460    -3.3480 hn         1 PAQ       0.379800
     33 HN2         72.1970    74.8550    -0.8990 hn         1 PAQ       0.444800
     34 HC2         69.9400    77.3760    -2.3790 ha         1 PAQ       0.179000
     35 H3          70.5200    79.8190    -2.1260 ha         1 PAQ       0.149000
     36 H4          72.5710    80.3910    -0.7690 ha         1 PAQ       0.137000
     37 H5          73.9200    78.5490     0.2470 h4         1 PAQ       0.006100
@<TRIPOS>BOND
     1     1     2 1   
     2     1    23 1   
     3     1    24 1   
     4     2     3 1   
     5     2    20 1   
     6     2    25 1   
     7     3     4 1   
     8     3    26 1   
     9     3    27 1   
    10     4     5 1   
    11     4     7 1   
    12     4    28 1   
    13     5     6 2   
    14     5     8 1   
    15     7     9 2   
    16     7    29 1   
    17     8    10 2   
    18     8    30 1   
    19     9    10 1   
    20     9    12 1   
    21    10    11 1   
    22    11    31 1   
    23    12    13 1   
    24    12    32 1   
    25    13    14 1   
    26    13    33 1   
    27    14    15 ar  
    28    14    19 ar  
    29    15    16 ar  
    30    15    34 1   
    31    16    17 ar  
    32    16    35 1   
    33    17    18 ar  
    34    17    36 1   
    35    18    19 ar  
    36    18    37 1   
    37    20    21 1   
    38    20    22 1   
@<TRIPOS>SUBSTRUCTURE
     1 PAQ         1 TEMP              0 ****  ****    0 ROOT
