@<TRIPOS>MOLECULE
PAQ
   37    38     1     0     0
SMALL
bcc


@<TRIPOS>ATOM
      1 N           67.3790    76.2280    -3.4670 n8         1 PAQ      -0.916800
      2 CA          66.2070    75.4890    -3.0210 c3         1 PAQ       0.009500
      3 CB          66.4410    74.8250    -1.6650 c3         1 PAQ      -0.023400
      4 CG          67.5840    73.7900    -1.6330 c6         1 PAQ      -0.153500
      5 CD1         67.3280    72.6500    -2.6080 c          1 PAQ       0.593300
      6 O2          66.2390    72.0870    -2.6130 o          1 PAQ      -0.543100
      7 CD2         68.9200    74.4390    -1.7330 c2         1 PAQ      -0.035200
      8 CE1         68.4030    72.2520    -3.4760 ce         1 PAQ      -0.336200
      9 CE2         69.8650    74.0350    -2.5810 cf         1 PAQ      -0.052000
     10 CZ          69.6070    72.8810    -3.4430 cf         1 PAQ       0.205100
     11 OH          70.6070    72.4520    -4.1990 oh         1 PAQ      -0.499100
     12 N1          71.1620    74.5870    -2.7330 nu         1 PAQ      -0.481800
     13 N2          71.7160    75.1940    -1.6250 nu         1 PAQ      -0.617700
     14 C1          71.6190    76.5560    -1.4270 ca         1 PAQ       0.613200
     15 C2          70.6300    77.3400    -2.0360 ca         1 PAQ      -0.288300
     16 C3          70.6020    78.6880    -1.7370 ca         1 PAQ      -0.049000
     17 C4          71.5360    79.2240    -0.8560 ca         1 PAQ      -0.297300
     18 C5          72.4690    78.3580    -0.3150 ca         1 PAQ       0.432200
     19 N3          72.5200    77.0610    -0.5910 nb         1 PAQ      -0.746000
     20 C           64.9550    76.4130    -2.9740 c          1 PAQ       0.929600
     21 O           65.0450    77.5120    -3.5570 o          1 PAQ      -0.830300
     22 OXT         63.9550    75.9580    -2.3880 o          1 PAQ      -0.830300
     23 H           67.0500    76.9960    -4.0390 hn         1 PAQ       0.332800
     24 H2          67.9660    75.6480    -4.0500 hn         1 PAQ       0.332800
     25 HA          65.9410    74.6940    -3.7360 h1         1 PAQ       0.017700
     26 HB2         66.6590    75.5940    -0.9170 hc         1 PAQ       0.060700
     27 HB3         65.5280    74.3270    -1.3480 hc         1 PAQ       0.060700
     28 HG          67.5440    73.3300    -0.6340 hc         1 PAQ       0.072700
     29 HD2         69.0990    75.2650    -1.0570 ha         1 PAQ       0.150000
     30 HE1         68.2550    71.4070    -4.1370 ha         1 PAQ       0.153000
     31 HH          71.4100    72.9460    -3.9560 ho         1 PAQ       0.443000
     32 HN1         71.2530    75.1560    -3.5720 hn         1 PAQ       0.379800
     33 HN2         72.6100    74.8040    -1.3640 hn         1 PAQ       0.444800
     34 HC2         69.8860    76.9150    -2.6980 ha         1 PAQ       0.179000
     35 H3          69.8470    79.3190    -2.1880 ha         1 PAQ       0.149000
     36 H4          71.5400    80.2740    -0.5990 ha         1 PAQ       0.137000
     37 H5          73.2210    78.7260     0.3750 h4         1 PAQ       0.006100
@<TRIPOS>BOND
     1     1     2 1   
     2     1    23 1   
     3     1    24 1   
     4     2     3 1   
     5     2    20 1   
     6     2    25 1   
     7     3     4 1   
     8     3    26 1   
     9     3    27 1   
    10     4     5 1   
    11     4     7 1   
    12     4    28 1   
    13     5     6 2   
    14     5     8 1   
    15     7     9 2   
    16     7    29 1   
    17     8    10 2   
    18     8    30 1   
    19     9    10 1   
    20     9    12 1   
    21    10    11 1   
    22    11    31 1   
    23    12    13 1   
    24    12    32 1   
    25    13    14 1   
    26    13    33 1   
    27    14    15 ar  
    28    14    19 ar  
    29    15    16 ar  
    30    15    34 1   
    31    16    17 ar  
    32    16    35 1   
    33    17    18 ar  
    34    17    36 1   
    35    18    19 ar  
    36    18    37 1   
    37    20    21 1   
    38    20    22 1   
@<TRIPOS>SUBSTRUCTURE
     1 PAQ         1 TEMP              0 ****  ****    0 ROOT
