@<TRIPOS>MOLECULE
PAR
   87    90     1     0     0
SMALL
No Charge or Current Charge


@<TRIPOS>ATOM
      1 C11         -1.4400     0.8050     3.2860 c6         1 PAR       0.392300
      2 O11         -0.1000     1.2880     3.5680 os         1 PAR      -0.465000
      3 C21         -2.5250     1.9210     3.5360 c6         1 PAR       0.156500
      4 N21         -2.3600     3.1670     2.7110 n8         1 PAR      -0.980200
      5 C31         -2.5870     2.2560     5.0600 c6         1 PAR       0.174300
      6 O31         -3.6140     3.2270     5.3460 oh         1 PAR      -0.664000
      7 C41         -2.8420     0.9660     5.8940 c6         1 PAR       0.099300
      8 O41         -2.8710     1.2920     7.3020 oh         1 PAR      -0.724000
      9 C51         -1.7420    -0.0910     5.5530 c6         1 PAR       0.136300
     10 O51         -1.7250    -0.3450     4.1210 os         1 PAR      -0.468000
     11 C61         -1.9680    -1.4560     6.2850 c3         1 PAR       0.171600
     12 O61         -1.0000    -2.4630     5.9310 oh         1 PAR      -0.701000
     13 C12          3.8200     0.0680     2.2800 c6         1 PAR       0.118500
     14 N12          5.0810    -0.6330     1.9210 n8         1 PAR      -1.014200
     15 C22          3.5680     0.1350     3.7950 c6         1 PAR      -0.113400
     16 C32          2.2790     0.9540     4.0530 c6         1 PAR       0.171500
     17 N32          2.0550     1.0770     5.5130 n8         1 PAR      -0.995200
     18 C42          1.0170     0.3840     3.2980 c6         1 PAR       0.174300
     19 C52          1.3140     0.2030     1.7580 c6         1 PAR       0.159300
     20 O52          0.1800    -0.4050     1.0790 os         1 PAR      -0.460000
     21 C62          2.6340    -0.6220     1.5730 c6         1 PAR       0.153300
     22 O62          3.0820    -0.8030     0.2290 oh         1 PAR      -0.736000
     23 C13          0.1480    -0.3900    -0.3650 c5         1 PAR       0.359300
     24 C23          0.1840    -1.8580    -0.9030 c5         1 PAR       0.138300
     25 O23          1.4470    -2.5490    -0.8380 oh         1 PAR      -0.703000
     26 C33         -0.3100    -1.5730    -2.3560 c5         1 PAR       0.154300
     27 O33          0.7820    -0.9780    -3.1160 os         1 PAR      -0.432000
     28 C43         -1.3940    -0.4550    -2.1160 c5         1 PAR       0.146300
     29 O43         -1.1730     0.0120    -0.7520 os         1 PAR      -0.465000
     30 C53         -2.8550    -0.9650    -2.2630 c3         1 PAR       0.147600
     31 O53         -3.8090     0.1110    -2.1670 oh         1 PAR      -0.716000
     32 C14          0.7220    -1.1040    -4.5520 c6         1 PAR       0.392300
     33 C24          2.0200    -0.4830    -5.1990 c6         1 PAR       0.139500
     34 N24          2.2690     0.9420    -4.7570 n8         1 PAR      -1.014200
     35 C34          1.9080    -0.5730    -6.7580 c6         1 PAR       0.128300
     36 O34          1.9330    -1.9460    -7.1910 oh         1 PAR      -0.659000
     37 C44          0.5950     0.1480    -7.2110 c6         1 PAR       0.122300
     38 O44          0.7120     1.5360    -6.8470 oh         1 PAR      -0.732000
     39 C54         -0.6210    -0.5220    -6.4820 c6         1 PAR       0.160300
     40 O54         -0.4510    -0.4170    -5.0420 os         1 PAR      -0.470000
     41 C64         -1.9890     0.1350    -6.8760 c3         1 PAR       0.157800
     42 N64         -3.2060    -0.5770    -6.3900 n8         1 PAR      -0.995200
     43 H11         -1.5260     0.5150     2.2310 h2         1 PAR       0.099700
     44 H21         -3.5030     1.5020     3.2550 h1         1 PAR       0.027700
     45 HN21        -2.7960     3.0210     1.7930 hn         1 PAR       0.414000
     46 HN22        -2.9500     3.8880     3.1450 hn         1 PAR       0.414000
     47 H31         -1.6080     2.6610     5.3570 h1         1 PAR       0.067700
     48 HO31        -3.7580     3.1490     6.3170 ho         1 PAR       0.455000
     49 H41         -3.8160     0.5510     5.5900 h1         1 PAR       0.044700
     50 HO41        -3.3950     0.5940     7.7620 ho         1 PAR       0.506000
     51 H51         -0.7600     0.2950     5.8630 h1         1 PAR       0.089700
     52 H611        -1.9330    -1.2800     7.3680 h1         1 PAR       0.018200
     53 H612        -2.9790    -1.8110     6.0450 h1         1 PAR       0.018200
     54 HO61        -1.2760    -3.2950     6.3790 ho         1 PAR       0.498000
     55 H121         5.8800    -0.0720     2.2490 hn         1 PAR       0.405000
     56 H122         5.1630    -1.4880     2.4890 hn         1 PAR       0.405000
     57 H221         3.4690    -0.8770     4.2140 hc         1 PAR       0.052700
     58 H222         4.4230     0.6100     4.2960 hc         1 PAR       0.052700
     59 H32          2.4480     1.9770     3.6830 h1         1 PAR       0.027700
     60 H321         2.7850     1.6800     5.9090 hn         1 PAR       0.402500
     61 H322         1.1950     1.6200     5.6450 hn         1 PAR       0.402500
     62 H42          0.7890    -0.6030     3.7260 h1         1 PAR       0.080700
     63 H52          1.4670     1.2040     1.3310 h1         1 PAR       0.061700
     64 H62          2.4830    -1.6090     2.0370 h1         1 PAR       0.047700
     65 HO62         4.0710    -0.7870     0.3960 ho         1 PAR       0.534000
     66 H13          0.9130     0.2630    -0.8060 h2         1 PAR       0.064700
     67 H23         -0.5750    -2.4510    -0.3720 h1         1 PAR       0.053700
     68 HO23         2.0990    -1.8840    -0.4600 ho         1 PAR       0.535000
     69 H33         -0.6920    -2.4710    -2.8610 h1         1 PAR       0.068700
     70 H43         -1.2490     0.3860    -2.8070 h1         1 PAR       0.104700
     71 H531        -2.9490    -1.4600    -3.2400 h1         1 PAR       0.033700
     72 H532        -3.0470    -1.7230    -1.4900 h1         1 PAR       0.033700
     73 HO53        -4.7000    -0.2770    -2.3300 ho         1 PAR       0.499000
     74 H14          0.6590    -2.1700    -4.8180 h2         1 PAR       0.045700
     75 H24          2.8780    -1.0860    -4.8630 h1         1 PAR       0.062700
     76 H241         2.0080     0.9950    -3.7620 hn         1 PAR       0.418500
     77 H242         3.2860     1.1020    -4.7250 hn         1 PAR       0.418500
     78 H34          2.7680    -0.0450    -7.1960 h1         1 PAR       0.049700
     79 HO34         2.1900    -1.9470    -8.1410 ho         1 PAR       0.449000
     80 H44          0.4720     0.0430    -8.2990 h1         1 PAR       0.057700
     81 HO44         1.2430     1.4870    -5.9890 ho         1 PAR       0.553000
     82 H54         -0.6680    -1.5860    -6.7570 h1         1 PAR       0.036700
     83 H641        -2.0400     0.1870    -7.9730 h1         1 PAR       0.048700
     84 H642        -2.0090     1.1650    -6.4940 h1         1 PAR       0.048700
     85 HN61        -4.0400    -0.1060    -6.7600 hn         1 PAR       0.391000
     86 HN62        -3.2440    -1.5100    -6.8160 hn         1 PAR       0.391000
     87 H12          3.9030     1.0960     1.8900 h1         1 PAR       0.067700
@<TRIPOS>BOND
     1     1     2 1   
     2     1     3 1   
     3     1    10 1   
     4     1    43 1   
     5     2    18 1   
     6     3     4 1   
     7     3     5 1   
     8     3    44 1   
     9     4    45 1   
    10     4    46 1   
    11     5     6 1   
    12     5     7 1   
    13     5    47 1   
    14     6    48 1   
    15     7     8 1   
    16     7     9 1   
    17     7    49 1   
    18     8    50 1   
    19     9    10 1   
    20     9    11 1   
    21     9    51 1   
    22    11    12 1   
    23    11    52 1   
    24    11    53 1   
    25    12    54 1   
    26    13    14 1   
    27    13    15 1   
    28    13    21 1   
    29    13    87 1   
    30    14    55 1   
    31    14    56 1   
    32    15    16 1   
    33    15    57 1   
    34    15    58 1   
    35    16    17 1   
    36    16    18 1   
    37    16    59 1   
    38    17    60 1   
    39    17    61 1   
    40    18    19 1   
    41    18    62 1   
    42    19    20 1   
    43    19    21 1   
    44    19    63 1   
    45    20    23 1   
    46    21    22 1   
    47    21    64 1   
    48    22    65 1   
    49    23    24 1   
    50    23    29 1   
    51    23    66 1   
    52    24    25 1   
    53    24    26 1   
    54    24    67 1   
    55    25    68 1   
    56    26    27 1   
    57    26    28 1   
    58    26    69 1   
    59    27    32 1   
    60    28    29 1   
    61    28    30 1   
    62    28    70 1   
    63    30    31 1   
    64    30    71 1   
    65    30    72 1   
    66    31    73 1   
    67    32    33 1   
    68    32    40 1   
    69    32    74 1   
    70    33    34 1   
    71    33    35 1   
    72    33    75 1   
    73    34    76 1   
    74    34    77 1   
    75    35    36 1   
    76    35    37 1   
    77    35    78 1   
    78    36    79 1   
    79    37    38 1   
    80    37    39 1   
    81    37    80 1   
    82    38    81 1   
    83    39    40 1   
    84    39    41 1   
    85    39    82 1   
    86    41    42 1   
    87    41    83 1   
    88    41    84 1   
    89    42    85 1   
    90    42    86 1   
@<TRIPOS>SUBSTRUCTURE
     1 PAR         1 TEMP              0 ****  ****    0 ROOT
