@<TRIPOS>MOLECULE
PAR
   87    90     1     0     0
SMALL
abcg2


@<TRIPOS>ATOM
      1 C11         -1.3060     0.2690     2.7980 c6         1 PAR       0.392300
      2 O11         -0.0880     0.9310     3.0100 os         1 PAR      -0.465000
      3 C21         -2.4030     1.3260     2.6730 c6         1 PAR       0.156500
      4 N21         -2.0720     2.2850     1.6370 n8         1 PAR      -0.980200
      5 C31         -2.6100     2.0090     4.0150 c6         1 PAR       0.174300
      6 O31         -3.6770     2.9200     3.8850 oh         1 PAR      -0.664000
      7 C41         -2.9070     0.9630     5.0840 c6         1 PAR       0.099300
      8 O41         -2.9950     1.6380     6.3220 oh         1 PAR      -0.724000
      9 C51         -1.8130    -0.1080     5.1080 c6         1 PAR       0.136300
     10 O51         -1.6170    -0.6450     3.8090 os         1 PAR      -0.468000
     11 C61         -2.1880    -1.2650     6.0100 c3         1 PAR       0.171600
     12 O61         -1.1050    -2.1590     6.0900 oh         1 PAR      -0.701000
     13 C12          3.9910    -0.2600     3.0650 c6         1 PAR       0.118500
     14 N12          5.1840    -1.0770     3.2230 n8         1 PAR      -1.014200
     15 C22          3.2990     0.1650     4.3560 c6         1 PAR      -0.113400
     16 C32          2.0340     0.9740     4.0840 c6         1 PAR       0.171500
     17 N32          1.4010     1.3310     5.3410 n8         1 PAR      -0.995200
     18 C42          1.0750     0.1560     3.2130 c6         1 PAR       0.174300
     19 C52          1.7800    -0.1770     1.8950 c6         1 PAR       0.159300
     20 O52          0.9120    -0.8910     1.0410 os         1 PAR      -0.460000
     21 C62          3.0110    -1.0250     2.1820 c6         1 PAR       0.153300
     22 O62          3.6230    -1.3960     0.9690 oh         1 PAR      -0.736000
     23 C13          0.9000    -0.5400    -0.3010 c5         1 PAR       0.359300
     24 C23          0.7680    -1.7910    -1.1630 c5         1 PAR       0.138300
     25 O23          1.9700    -2.4380    -1.4440 oh         1 PAR      -0.703000
     26 C33          0.0610    -1.2700    -2.4070 c5         1 PAR       0.154300
     27 O33          1.0120    -0.7400    -3.3040 os         1 PAR      -0.432000
     28 C43         -0.8420    -0.1760    -1.8140 c5         1 PAR       0.146300
     29 O43         -0.2360     0.2290    -0.5880 os         1 PAR      -0.465000
     30 C53         -2.2560    -0.6640    -1.5790 c3         1 PAR       0.147600
     31 O53         -2.9950     0.3750    -0.9790 oh         1 PAR      -0.716000
     32 C14          0.6530    -0.8330    -4.6380 c6         1 PAR       0.392300
     33 C24          1.7620    -0.2240    -5.4910 c6         1 PAR       0.139500
     34 N24          1.9860     1.1680    -5.1100 n8         1 PAR      -1.014200
     35 C34          1.3150    -0.2430    -6.9600 c6         1 PAR       0.128300
     36 O34          1.2980    -1.5870    -7.3780 oh         1 PAR      -0.659000
     37 C44         -0.0700     0.4220    -7.1010 c6         1 PAR       0.122300
     38 O44          0.0260     1.8100    -6.9040 oh         1 PAR      -0.732000
     39 C54         -1.0560    -0.2350    -6.1340 c6         1 PAR       0.160300
     40 O54         -0.5530    -0.1480    -4.8160 os         1 PAR      -0.470000
     41 C64         -2.4320     0.4050    -6.1570 c3         1 PAR       0.157800
     42 N64         -3.3770    -0.3590    -5.3600 n8         1 PAR      -0.995200
     43 H11         -1.2750    -0.3290     1.8850 h2         1 PAR       0.099700
     44 H21         -3.3240     0.7630     2.4440 h1         1 PAR       0.027700
     45 HN21        -1.9800     1.7850     0.7600 hn         1 PAR       0.414000
     46 HN22        -2.8560     2.9120     1.5110 hn         1 PAR       0.414000
     47 H31         -1.6850     2.5380     4.2920 h1         1 PAR       0.067700
     48 HO31        -3.7850     3.3700     4.7300 ho         1 PAR       0.455000
     49 H41         -3.8660     0.4860     4.8310 h1         1 PAR       0.044700
     50 HO41        -3.6200     1.1780     6.8890 ho         1 PAR       0.506000
     51 H51         -0.8820     0.3390     5.4810 h1         1 PAR       0.089700
     52 H611        -2.4470    -0.8650     6.9980 h1         1 PAR       0.018200
     53 H612        -3.0910    -1.7500     5.6140 h1         1 PAR       0.018200
     54 HO61        -1.3670    -2.8910     6.6560 ho         1 PAR       0.498000
     55 H121         5.9510    -0.5170     3.5720 hn         1 PAR       0.405000
     56 H122         5.0240    -1.8010     3.9140 hn         1 PAR       0.405000
     57 H221         3.0400    -0.7190     4.9510 hc         1 PAR       0.052700
     58 H222         3.9900     0.7610     4.9590 hc         1 PAR       0.052700
     59 H32          2.3250     1.8640     3.5010 h1         1 PAR       0.027700
     60 H321         2.0700     1.8310     5.9160 hn         1 PAR       0.402500
     61 H322         0.6510     1.9880     5.1690 hn         1 PAR       0.402500
     62 H42          0.8300    -0.7710     3.7460 h1         1 PAR       0.080700
     63 H52          2.0900     0.7620     1.4150 h1         1 PAR       0.061700
     64 H62          2.6840    -1.9240     2.7330 h1         1 PAR       0.047700
     65 HO62         4.5240    -1.6600     1.2140 ho         1 PAR       0.534000
     66 H13          1.8120     0.0190    -0.5570 h2         1 PAR       0.064700
     67 H23          0.0580    -2.4580    -0.6480 h1         1 PAR       0.053700
     68 HO23         2.5060    -2.4420    -0.6390 ho         1 PAR       0.535000
     69 H33         -0.5260    -2.0580    -2.8940 h1         1 PAR       0.068700
     70 H43         -0.8760     0.6850    -2.4850 h1         1 PAR       0.104700
     71 H531        -2.6720    -0.9410    -2.5570 h1         1 PAR       0.033700
     72 H532        -2.2410    -1.5650    -0.9510 h1         1 PAR       0.033700
     73 HO53        -3.8330     0.0170    -0.6760 ho         1 PAR       0.499000
     74 H14          0.5200    -1.8920    -4.9250 h2         1 PAR       0.045700
     75 H24          2.6600    -0.8480    -5.3840 h1         1 PAR       0.062700
     76 H241         2.1130     1.2460    -4.1090 hn         1 PAR       0.418500
     77 H242         2.8430     1.5000    -5.5340 hn         1 PAR       0.418500
     78 H34          2.0390     0.3400    -7.5500 h1         1 PAR       0.049700
     79 HO34         1.0240    -1.6170    -8.3000 ho         1 PAR       0.449000
     80 H44         -0.4320     0.2570    -8.1250 h1         1 PAR       0.057700
     81 HO44         0.6120     1.9190    -6.1240 ho         1 PAR       0.553000
     82 H54         -1.1630    -1.2920    -6.4270 h1         1 PAR       0.036700
     83 H641        -2.7320     0.5170    -7.2090 h1         1 PAR       0.048700
     84 H642        -2.3610     1.4130    -5.7460 h1         1 PAR       0.048700
     85 HN61        -4.2370     0.1650    -5.2640 hn         1 PAR       0.391000
     86 HN62        -3.6260    -1.2080    -5.8520 hn         1 PAR       0.391000
     87 H12          4.2950     0.6410     2.5190 h1         1 PAR       0.067700
@<TRIPOS>BOND
     1     1     2 1   
     2     1     3 1   
     3     1    10 1   
     4     1    43 1   
     5     2    18 1   
     6     3     4 1   
     7     3     5 1   
     8     3    44 1   
     9     4    45 1   
    10     4    46 1   
    11     5     6 1   
    12     5     7 1   
    13     5    47 1   
    14     6    48 1   
    15     7     8 1   
    16     7     9 1   
    17     7    49 1   
    18     8    50 1   
    19     9    10 1   
    20     9    11 1   
    21     9    51 1   
    22    11    12 1   
    23    11    52 1   
    24    11    53 1   
    25    12    54 1   
    26    13    14 1   
    27    13    15 1   
    28    13    21 1   
    29    13    87 1   
    30    14    55 1   
    31    14    56 1   
    32    15    16 1   
    33    15    57 1   
    34    15    58 1   
    35    16    17 1   
    36    16    18 1   
    37    16    59 1   
    38    17    60 1   
    39    17    61 1   
    40    18    19 1   
    41    18    62 1   
    42    19    20 1   
    43    19    21 1   
    44    19    63 1   
    45    20    23 1   
    46    21    22 1   
    47    21    64 1   
    48    22    65 1   
    49    23    24 1   
    50    23    29 1   
    51    23    66 1   
    52    24    25 1   
    53    24    26 1   
    54    24    67 1   
    55    25    68 1   
    56    26    27 1   
    57    26    28 1   
    58    26    69 1   
    59    27    32 1   
    60    28    29 1   
    61    28    30 1   
    62    28    70 1   
    63    30    31 1   
    64    30    71 1   
    65    30    72 1   
    66    31    73 1   
    67    32    33 1   
    68    32    40 1   
    69    32    74 1   
    70    33    34 1   
    71    33    35 1   
    72    33    75 1   
    73    34    76 1   
    74    34    77 1   
    75    35    36 1   
    76    35    37 1   
    77    35    78 1   
    78    36    79 1   
    79    37    38 1   
    80    37    39 1   
    81    37    80 1   
    82    38    81 1   
    83    39    40 1   
    84    39    41 1   
    85    39    82 1   
    86    41    42 1   
    87    41    83 1   
    88    41    84 1   
    89    42    85 1   
    90    42    86 1   
@<TRIPOS>SUBSTRUCTURE
     1 PAR         1 TEMP              0 ****  ****    0 ROOT
