@<TRIPOS>MOLECULE
PAU
   31    30     1     0     0
SMALL
No Charge or Current Charge


@<TRIPOS>ATOM
      1 O2           3.7440     1.8000     1.5780 oh         1 PAU      -0.669000
      2 C1           2.5830     0.5890    -0.2590 c3         1 PAU      -0.063000
      3 C2           3.0080     0.6110     1.2490 c3         1 PAU       0.163600
      4 C3           1.6830     1.8230    -0.5710 c3         1 PAU      -0.081100
      5 C4           3.8440     0.6680    -1.1740 c3         1 PAU      -0.081100
      6 C5           1.7880    -0.7310    -0.5920 c3         1 PAU       0.089300
      7 O5           2.6170    -1.9000    -0.3630 oh         1 PAU      -0.660000
      8 C6           0.4300    -0.8610     0.1770 c          1 PAU       0.555100
      9 O6           0.3550    -1.3350     1.3050 o          1 PAU      -0.642100
     10 N           -0.6960    -0.4900    -0.5280 ns         1 PAU      -0.478900
     11 C8          -2.0570    -0.5520     0.0020 c3         1 PAU       0.113000
     12 C9          -3.0500     0.1510    -0.9370 c3         1 PAU      -0.233400
     13 C           -4.4530     0.0550    -0.3300 c          1 PAU       0.724000
     14 OXT         -5.1310    -0.9230    -0.6040 o          1 PAU      -0.731500
     15 O           -4.8070     0.9320     0.4420 o          1 PAU      -0.731500
     16 HO           3.9780     1.7370     2.5310 ho         1 PAU       0.436000
     17 H21          3.6210    -0.2730     1.4680 h1         1 PAU       0.031700
     18 H22          2.1110     0.5510     1.8800 h1         1 PAU       0.031700
     19 H31          2.2430     2.7600    -0.4680 hc         1 PAU       0.037700
     20 H32          1.3010     1.7790    -1.5980 hc         1 PAU       0.037700
     21 H33          0.8260     1.8760     0.1100 hc         1 PAU       0.037700
     22 H41          4.5560    -0.1330    -0.9420 hc         1 PAU       0.037700
     23 H42          3.5660     0.5780    -2.2310 hc         1 PAU       0.037700
     24 H43          4.3680     1.6230    -1.0500 hc         1 PAU       0.037700
     25 H5           1.5290    -0.6920    -1.6590 h1         1 PAU       0.067700
     26 H1           2.3560    -2.2590     0.5170 ho         1 PAU       0.464000
     27 H           -0.5620    -0.1350    -1.4670 hn         1 PAU       0.306500
     28 H81         -2.3420    -1.6060     0.1260 h1         1 PAU       0.060200
     29 H82         -2.0780    -0.0710     0.9900 h1         1 PAU       0.060200
     30 H91         -2.7230     1.1970    -0.9980 hc         1 PAU       0.021200
     31 H92         -3.0010    -0.3880    -1.8910 hc         1 PAU       0.021200
@<TRIPOS>BOND
     1     1     3 1   
     2     1    16 1   
     3     2     3 1   
     4     2     4 1   
     5     2     5 1   
     6     2     6 1   
     7     3    17 1   
     8     3    18 1   
     9     4    19 1   
    10     4    20 1   
    11     4    21 1   
    12     5    22 1   
    13     5    23 1   
    14     5    24 1   
    15     6     7 1   
    16     6     8 1   
    17     6    25 1   
    18     7    26 1   
    19     8     9 2   
    20     8    10 1   
    21    10    11 1   
    22    10    27 1   
    23    11    12 1   
    24    11    28 1   
    25    11    29 1   
    26    12    13 1   
    27    12    30 1   
    28    12    31 1   
    29    13    14 1   
    30    13    15 1   
@<TRIPOS>SUBSTRUCTURE
     1 PAU         1 TEMP              0 ****  ****    0 ROOT
