@<TRIPOS>MOLECULE
PAU
   31    30     1     0     0
SMALL
bcc


@<TRIPOS>ATOM
      1 H2           3.6210     1.8790     1.4340 oh         1 PAU      -0.334000
      2 H1           2.5240     0.5860    -0.2630 c3         1 PAU      -0.063000
      3 H2           2.9100     0.6800     1.2140 c3         1 PAU      -0.010000
      4 H3           1.6000     1.7500    -0.6360 c3         1 PAU      -0.199000
      5 H4           3.7710     0.6400    -1.1500 c3         1 PAU      -0.199000
      6 H5           1.8090    -0.7640    -0.5510 c3         1 PAU       0.005000
      7 H5           2.6100    -1.8770    -0.2530 oh         1 PAU      -0.325000
      8 H6           0.4760    -0.9150     0.1850 c          1 PAU       0.266000
      9 H6           0.4470    -1.4100     1.3080 o          1 PAU      -0.403000
     10 H           -0.6110    -0.4990    -0.4620 n7         1 PAU      -0.355000
     11 H8          -1.9430    -0.5020     0.1220 c3         1 PAU      -0.003000
     12 H9          -2.9480     0.0240    -0.8860 c3         1 PAU      -0.262000
     13 H           -4.3970     0.0830    -0.3710 c          1 PAU       0.354000
     14 HXT         -5.2470     0.4810    -1.1920 o          1 PAU      -0.571500
     15 H           -4.6050    -0.2650     0.8070 o          1 PAU      -0.571500
     16 HO           3.8760     1.9030     2.3610 ha         1 PAU       0.196000
     17 H21          3.5220    -0.1880     1.4920 ha         1 PAU       0.071000
     18 H22          2.0050     0.6500     1.8330 ha         1 PAU       0.071000
     19 H31          2.1480     2.6910    -0.6220 ha         1 PAU       0.077000
     20 H32          1.1970     1.6300    -1.6450 ha         1 PAU       0.077000
     21 H33          0.7590     1.8490     0.0510 ha         1 PAU       0.077000
     22 H41          4.4570    -0.1810    -0.9400 ha         1 PAU       0.077000
     23 H42          3.4920     0.5790    -2.2040 ha         1 PAU       0.077000
     24 H43          4.3140     1.5740    -1.0100 ha         1 PAU       0.077000
     25 H5           1.6220    -0.7880    -1.6310 ha         1 PAU       0.107000
     26 H1           2.4370    -2.1240     0.6650 ha         1 PAU       0.224000
     27 H           -0.5050    -0.1310    -1.3930 ha         1 PAU       0.220000
     28 H81         -2.2050    -1.5170     0.4270 ha         1 PAU       0.099500
     29 H82         -1.9490     0.1150     1.0220 ha         1 PAU       0.099500
     30 H91         -2.6540     1.0280    -1.2100 ha         1 PAU       0.060500
     31 H92         -2.9260    -0.5970    -1.7880 ha         1 PAU       0.060500
@<TRIPOS>BOND
     1     1     3 1   
     2     1    16 1   
     3     2     3 1   
     4     2     4 1   
     5     2     5 1   
     6     2     6 1   
     7     3    17 1   
     8     3    18 1   
     9     4    19 1   
    10     4    20 1   
    11     4    21 1   
    12     5    22 1   
    13     5    23 1   
    14     5    24 1   
    15     6     7 1   
    16     6     8 1   
    17     6    25 1   
    18     7    26 1   
    19     8     9 2   
    20     8    10 1   
    21    10    11 1   
    22    10    27 1   
    23    11    12 1   
    24    11    28 1   
    25    11    29 1   
    26    12    13 1   
    27    12    30 1   
    28    12    31 1   
    29    13    14 1   
    30    13    15 1   
@<TRIPOS>SUBSTRUCTURE
     1 PAU         1 TEMP              0 ****  ****    0 ROOT
