@<TRIPOS>MOLECULE
PAV
   20    20     1     0     0
SMALL
No Charge or Current Charge


@<TRIPOS>ATOM
      1 O3           0.2590    -1.1410     2.1710 oh         1 PAV      -0.673000
      2 C4          -0.0880    -0.1470     1.2230 c5         1 PAV       0.420000
      3 C11          0.0540     1.2340     1.9150 c3         1 PAV      -0.128100
      4 O5          -1.4530    -0.3390     0.8190 os         1 PAV      -0.480000
      5 C6          -1.6360     0.2570    -0.4970 c5         1 PAV       0.142600
      6 C7          -0.2020     0.5140    -1.0980 c5         1 PAV       0.053300
      7 O12         -0.0430     0.1010    -2.4750 oh         1 PAV      -0.724000
      8 C8           0.7070    -0.3320    -0.1520 c5         1 PAV       0.391000
      9 O1           2.0600     0.0830    -0.1610 oh         1 PAV      -0.704500
     10 O13          0.6900    -1.6710    -0.6060 oh         1 PAV      -0.704500
     11 HO3          0.4730    -1.9130     1.5990 ho         1 PAV       0.513000
     12 H111        -0.5550     1.2780     2.8250 hc         1 PAV       0.054033
     13 H112         1.0950     1.4200     2.2030 hc         1 PAV       0.054033
     14 H113        -0.2620     2.0590     1.2680 hc         1 PAV       0.054033
     15 H61         -2.2290    -0.4310    -1.1140 h1         1 PAV       0.056700
     16 H62         -2.1970     1.1960    -0.3920 h1         1 PAV       0.056700
     17 H7           0.0470     1.5800    -0.9990 h1         1 PAV       0.057700
     18 H12         -0.5360     0.7430    -3.0440 ho         1 PAV       0.524000
     19 HO1          2.2360     0.3490    -1.0900 ho         1 PAV       0.518500
     20 H13          0.4310    -1.5430    -1.5520 ho         1 PAV       0.518500
@<TRIPOS>BOND
     1     1     2 1   
     2     1    11 1   
     3     2     3 1   
     4     2     4 1   
     5     2     8 1   
     6     3    12 1   
     7     3    13 1   
     8     3    14 1   
     9     4     5 1   
    10     5     6 1   
    11     5    15 1   
    12     5    16 1   
    13     6     7 1   
    14     6     8 1   
    15     6    17 1   
    16     7    18 1   
    17     8     9 1   
    18     8    10 1   
    19     9    19 1   
    20    10    20 1   
@<TRIPOS>SUBSTRUCTURE
     1 PAV         1 TEMP              0 ****  ****    0 ROOT
