@<TRIPOS>MOLECULE
PAV
   20    20     1     0     0
SMALL
bcc


@<TRIPOS>ATOM
      1 O3           0.1960    -1.3700     1.7720 oh         1 PAV      -0.550800
      2 C4          -0.1030    -0.2020     1.0910 c5         1 PAV       0.373600
      3 C11          0.1440     1.0220     1.9590 c3         1 PAV      -0.128100
      4 O5          -1.4730    -0.2060     0.7030 os         1 PAV      -0.433600
      5 C6          -1.6330     0.0400    -0.6850 c5         1 PAV       0.119400
      6 C7          -0.2930     0.5980    -1.1490 c5         1 PAV       0.030100
      7 O12          0.0220     0.3680    -2.4930 oh         1 PAV      -0.601800
      8 C8           0.6710    -0.1820    -0.2500 c5         1 PAV       0.344600
      9 O1           1.9110     0.4170    -0.0720 oh         1 PAV      -0.582300
     10 O13          0.7840    -1.4940    -0.7000 oh         1 PAV      -0.582300
     11 HO3         -0.0160    -1.2540     2.7040 ho         1 PAV       0.414000
     12 H111        -0.5570     1.0190     2.7980 hc         1 PAV       0.054033
     13 H112         1.1550     1.0300     2.3640 hc         1 PAV       0.054033
     14 H113        -0.0080     1.9510     1.4110 hc         1 PAV       0.054033
     15 H61         -1.8730    -0.8810    -1.2270 h1         1 PAV       0.056700
     16 H62         -2.4550     0.7430    -0.8330 h1         1 PAV       0.056700
     17 H7          -0.2310     1.6660    -0.9020 h1         1 PAV       0.057700
     18 H12         -0.5300     0.9240    -3.0510 ho         1 PAV       0.425000
     19 HO1          2.3050     0.6010    -0.9330 ho         1 PAV       0.419500
     20 H13          0.8360    -1.4920    -1.6640 ho         1 PAV       0.419500
@<TRIPOS>BOND
     1     1     2 1   
     2     1    11 1   
     3     2     3 1   
     4     2     4 1   
     5     2     8 1   
     6     3    12 1   
     7     3    13 1   
     8     3    14 1   
     9     4     5 1   
    10     5     6 1   
    11     5    15 1   
    12     5    16 1   
    13     6     7 1   
    14     6     8 1   
    15     6    17 1   
    16     7    18 1   
    17     8     9 1   
    18     8    10 1   
    19     9    19 1   
    20    10    20 1   
@<TRIPOS>SUBSTRUCTURE
     1 PAV         1 TEMP              0 ****  ****    0 ROOT
