@<TRIPOS>MOLECULE
PAW
   36    35     1     0     0
SMALL
bcc


@<TRIPOS>ATOM
      1 N1          -1.6110     1.8320    -1.0230 n8         1 PAW      -0.882300
      2 C2          -0.2570     1.9680    -0.5130 c3         1 PAW       0.141300
      3 C3          -0.1360     1.9830     1.0080 c3         1 PAW       0.139800
      4 C5           1.4070     2.1910     2.8610 c3         1 PAW       0.157800
      5 C6           2.8720     2.3580     3.2350 c3         1 PAW       0.158300
      6 N4           1.2450     2.1260     1.4230 n7         1 PAW      -0.809700
      7 N7           3.0320     2.4250     4.6730 n7         1 PAW      -0.812200
      8 C8           4.4170     2.4920     5.0930 c3         1 PAW       0.158300
      9 C9           4.5230     2.4950     6.6090 c3         1 PAW       0.157800
     10 N10          5.9100     2.5130     7.0280 n7         1 PAW      -0.809700
     11 C11          6.0790     2.4460     8.4660 c3         1 PAW       0.139800
     12 C12          7.5520     2.3900     8.8380 c3         1 PAW       0.141300
     13 N13          7.7090     2.3080    10.2830 n8         1 PAW      -0.882300
     14 HN11        -2.1870     2.5810    -0.6580 hn         1 PAW       0.336550
     15 HN12        -2.0220     0.9750    -0.6750 hn         1 PAW       0.336550
     16 H21          0.3450     1.1460    -0.9140 h1         1 PAW       0.046700
     17 H22          0.1770     2.8880    -0.9120 h1         1 PAW       0.046700
     18 H31         -0.7040     2.8340     1.4000 h1         1 PAW       0.031450
     19 H32         -0.6160     1.0780     1.4170 h1         1 PAW       0.031450
     20 H51          0.8390     3.0530     3.2280 h1         1 PAW       0.035950
     21 H52          1.0050     1.3090     3.3840 h1         1 PAW       0.035950
     22 H61          3.4360     1.4930     2.8710 h1         1 PAW       0.036700
     23 H62          3.2790     3.2370     2.7100 h1         1 PAW       0.036700
     24 HN4          1.7720     1.3340     1.0710 hn         1 PAW       0.350300
     25 HN7          2.5450     3.2440     5.0180 hn         1 PAW       0.349800
     26 H81          4.9450     3.3710     4.6840 h1         1 PAW       0.036700
     27 H82          4.9400     1.6120     4.7070 h1         1 PAW       0.036700
     28 H91          4.0550     1.5850     6.9960 h1         1 PAW       0.035950
     29 H92          3.9440     3.3410     7.0180 h1         1 PAW       0.035950
     30 HN10         6.3450     3.3630     6.6870 hn         1 PAW       0.350300
     31 H111         5.5840     1.5360     8.8230 h1         1 PAW       0.031450
     32 H112         5.6060     3.2860     8.9990 h1         1 PAW       0.031450
     33 H121         8.0430     3.3050     8.4930 h1         1 PAW       0.046700
     34 H122         8.0170     1.5600     8.2890 h1         1 PAW       0.046700
     35 H131         8.6930     2.3380    10.5160 hn         1 PAW       0.336550
     36 H132         7.3840     1.4040    10.6030 hn         1 PAW       0.336550
@<TRIPOS>BOND
     1     1     2 1   
     2     1    14 1   
     3     1    15 1   
     4     2     3 1   
     5     2    16 1   
     6     2    17 1   
     7     3     6 1   
     8     3    18 1   
     9     3    19 1   
    10     4     5 1   
    11     4     6 1   
    12     4    20 1   
    13     4    21 1   
    14     5     7 1   
    15     5    22 1   
    16     5    23 1   
    17     6    24 1   
    18     7     8 1   
    19     7    25 1   
    20     8     9 1   
    21     8    26 1   
    22     8    27 1   
    23     9    10 1   
    24     9    28 1   
    25     9    29 1   
    26    10    11 1   
    27    10    30 1   
    28    11    12 1   
    29    11    31 1   
    30    11    32 1   
    31    12    13 1   
    32    12    33 1   
    33    12    34 1   
    34    13    35 1   
    35    13    36 1   
@<TRIPOS>SUBSTRUCTURE
     1 PAW         1 TEMP              0 ****  ****    0 ROOT
