@<TRIPOS>MOLECULE
PAW
   36    35     1     0     0
SMALL
No Charge or Current Charge


@<TRIPOS>ATOM
      1 N1          -1.7350     1.9560    -1.1680 n8         1 PAW      -0.992700
      2 C2          -0.3370     2.0290    -0.6700 c3         1 PAW       0.141300
      3 C3          -0.2410     2.0310     0.8830 c3         1 PAW       0.139800
      4 C5           1.3510     2.1440     2.8070 c3         1 PAW       0.157800
      5 C6           2.8530     2.2520     3.1940 c3         1 PAW       0.158300
      6 N4           1.1660     2.1010     1.3360 n7         1 PAW      -0.864900
      7 N7           3.0380     2.2950     4.6640 n7         1 PAW      -0.867400
      8 C8           4.4480     2.3670     5.1170 c3         1 PAW       0.158300
      9 C9           4.5530     2.3720     6.6690 c3         1 PAW       0.157800
     10 N10          5.9620     2.4690     7.1230 n7         1 PAW      -0.864900
     11 C11          6.1500     2.4460     8.5910 c3         1 PAW       0.139800
     12 C12          7.6570     2.5110     8.9710 c3         1 PAW       0.141300
     13 N13          7.8860     2.4860    10.4380 n8         1 PAW      -0.992700
     14 HN11        -2.2730     2.7370    -0.7710 hn         1 PAW       0.391750
     15 HN12        -2.1900     1.1240    -0.7720 hn         1 PAW       0.391750
     16 H21          0.2200     1.1680    -1.0670 h1         1 PAW       0.046700
     17 H22          0.1270     2.9450    -1.0620 h1         1 PAW       0.046700
     18 H31         -0.8030     2.8910     1.2710 h1         1 PAW       0.031450
     19 H32         -0.7170     1.1200     1.2710 h1         1 PAW       0.031450
     20 H51          0.8170     3.0070     3.2280 h1         1 PAW       0.035950
     21 H52          0.9320     1.2380     3.2670 h1         1 PAW       0.035950
     22 H61          3.3870     1.3890     2.7730 h1         1 PAW       0.036700
     23 H62          3.2720     3.1570     2.7330 h1         1 PAW       0.036700
     24 HN4          1.6610     1.2740     0.9770 hn         1 PAW       0.405500
     25 HN7          2.5440     3.1210     5.0240 hn         1 PAW       0.405000
     26 H81          4.9230     3.2770     4.7260 h1         1 PAW       0.036700
     27 H82          5.0130     1.5070     4.7310 h1         1 PAW       0.036700
     28 H91          4.0950     1.4510     7.0540 h1         1 PAW       0.035950
     29 H92          3.9730     3.2190     7.0600 h1         1 PAW       0.035950
     30 HN10         6.3540     3.3490     6.7630 hn         1 PAW       0.405500
     31 H111         5.7190     1.5260     9.0100 h1         1 PAW       0.031450
     32 H112         5.6300     3.2970     9.0520 h1         1 PAW       0.031450
     33 H121         8.0940     3.4340     8.5650 h1         1 PAW       0.046700
     34 H122         8.1810     1.6570     8.5190 h1         1 PAW       0.046700
     35 H131         8.8970     2.4710    10.6190 hn         1 PAW       0.391750
     36 H132         7.5620     1.5850    10.8120 hn         1 PAW       0.391750
@<TRIPOS>BOND
     1     1     2 1   
     2     1    14 1   
     3     1    15 1   
     4     2     3 1   
     5     2    16 1   
     6     2    17 1   
     7     3     6 1   
     8     3    18 1   
     9     3    19 1   
    10     4     5 1   
    11     4     6 1   
    12     4    20 1   
    13     4    21 1   
    14     5     7 1   
    15     5    22 1   
    16     5    23 1   
    17     6    24 1   
    18     7     8 1   
    19     7    25 1   
    20     8     9 1   
    21     8    26 1   
    22     8    27 1   
    23     9    10 1   
    24     9    28 1   
    25     9    29 1   
    26    10    11 1   
    27    10    30 1   
    28    11    12 1   
    29    11    31 1   
    30    11    32 1   
    31    12    13 1   
    32    12    33 1   
    33    12    34 1   
    34    13    35 1   
    35    13    36 1   
@<TRIPOS>SUBSTRUCTURE
     1 PAW         1 TEMP              0 ****  ****    0 ROOT
