@<TRIPOS>MOLECULE
PAY
   34    33     1     0     0
SMALL
bcc


@<TRIPOS>ATOM
      1 O42          6.0260     0.7290    -0.2330 o          1 PAY      -0.901300
      2 O41          4.5300     2.0830    -1.1700 o          1 PAY      -0.901300
      3 C4           4.8570     1.0670    -0.5250 c          1 PAY       0.917600
      4 C41          3.7430     0.1300    -0.0280 c3         1 PAY      -0.184400
      5 C32          2.3210     0.5100    -0.4090 c3         1 PAY      -0.028400
      6 C31          1.2710    -0.5190     0.0150 c3         1 PAY      -0.183700
      7 C3           1.2660    -0.7020     1.5420 c          1 PAY       0.939600
      8 O31          1.0100     0.3140     2.2270 o          1 PAY      -0.887300
      9 O32          1.5200    -1.8380     1.9970 o          1 PAY      -0.887300
     10 C22         -0.1110    -0.0930    -0.4850 c3         1 PAY      -0.015400
     11 C21         -1.2550    -1.0170    -0.0870 c3         1 PAY      -0.179700
     12 C2          -1.1260    -2.4350    -0.6730 c          1 PAY       0.944600
     13 O21         -0.5950    -2.5560    -1.7990 o          1 PAY      -0.893300
     14 O22         -1.6170    -3.3690    -0.0010 o          1 PAY      -0.893300
     15 C12         -2.6270    -0.4660    -0.5100 c3         1 PAY      -0.032400
     16 C11         -2.9670     0.9380    -0.0090 c3         1 PAY      -0.176700
     17 C10         -2.8030     1.0660     1.5050 c3         1 PAY      -0.064100
     18 C1          -4.3760     1.4150    -0.4350 c          1 PAY       0.920600
     19 O12         -4.6950     2.5710    -0.0810 o          1 PAY      -0.893800
     20 O11         -5.0920     0.6380    -1.0990 o          1 PAY      -0.893800
     21 H411         3.9640    -0.8810    -0.3930 hc         1 PAY       0.023700
     22 H412         3.8330     0.0600     1.0620 hc         1 PAY       0.023700
     23 H321         2.0640     1.4780     0.0290 hc         1 PAY       0.012700
     24 H322         2.2620     0.6470    -1.4940 hc         1 PAY       0.012700
     25 H31          1.5260    -1.4790    -0.4470 hc         1 PAY       0.046700
     26 H221        -0.3060     0.9140    -0.1060 hc         1 PAY       0.005200
     27 H222        -0.0850    -0.0090    -1.5760 hc         1 PAY       0.005200
     28 H21         -1.2600    -1.1180     1.0020 hc         1 PAY       0.053700
     29 H121        -2.6870    -0.4770    -1.6040 hc         1 PAY       0.021200
     30 H122        -3.3960    -1.1610    -0.1580 hc         1 PAY       0.021200
     31 H11         -2.2670     1.6490    -0.4650 hc         1 PAY       0.028700
     32 H101        -3.4380     0.3490     2.0320 hc         1 PAY       0.013700
     33 H102        -1.7730     0.8840     1.8170 hc         1 PAY       0.013700
     34 H103        -3.0800     2.0640     1.8410 hc         1 PAY       0.013700
@<TRIPOS>BOND
     1     1     3 1   
     2     2     3 1   
     3     3     4 1   
     4     4     5 1   
     5     4    21 1   
     6     4    22 1   
     7     5     6 1   
     8     5    23 1   
     9     5    24 1   
    10     6     7 1   
    11     6    10 1   
    12     6    25 1   
    13     7     8 1   
    14     7     9 1   
    15    10    11 1   
    16    10    26 1   
    17    10    27 1   
    18    11    12 1   
    19    11    15 1   
    20    11    28 1   
    21    12    13 1   
    22    12    14 1   
    23    15    16 1   
    24    15    29 1   
    25    15    30 1   
    26    16    17 1   
    27    16    18 1   
    28    16    31 1   
    29    17    32 1   
    30    17    33 1   
    31    17    34 1   
    32    18    19 1   
    33    18    20 1   
@<TRIPOS>SUBSTRUCTURE
     1 PAY         1 TEMP              0 ****  ****    0 ROOT
