@<TRIPOS>MOLECULE
PAY
   34    33     1     0     0
SMALL
No Charge or Current Charge


@<TRIPOS>ATOM
      1 O42          5.3790     0.6370    -1.7850 o          1 PAY      -0.796000
      2 O41          5.3320     1.9370    -0.0760 o          1 PAY      -0.796000
      3 C4           4.9710     0.9340    -0.6720 c          1 PAY       0.707000
      4 C41          3.9210     0.0230    -0.0090 c3         1 PAY      -0.184400
      5 C32          2.4910     0.4780    -0.3980 c3         1 PAY      -0.028400
      6 C31          1.3540    -0.4350     0.1470 c3         1 PAY      -0.183700
      7 C3           1.3690    -0.5050     1.6970 c          1 PAY       0.729000
      8 O31          1.1580     0.5150     2.3390 o          1 PAY      -0.782000
      9 O32          1.6110    -1.5800     2.2270 o          1 PAY      -0.782000
     10 C22         -0.0330     0.0100    -0.4040 c3         1 PAY      -0.015400
     11 C21         -1.2270    -0.9400    -0.0800 c3         1 PAY      -0.179700
     12 C2          -0.9980    -2.3690    -0.6390 c          1 PAY       0.734000
     13 O21         -0.8700    -2.5210    -1.8460 o          1 PAY      -0.788000
     14 O22         -0.9940    -3.3060     0.1460 o          1 PAY      -0.788000
     15 C12         -2.6010    -0.3980    -0.5870 c3         1 PAY      -0.032400
     16 C11         -3.1180     0.9330     0.0420 c3         1 PAY      -0.176700
     17 C10         -3.3100     0.8560     1.5780 c3         1 PAY      -0.064100
     18 C1          -4.4250     1.3960    -0.6540 c          1 PAY       0.710000
     19 O12         -4.4140     2.4590    -1.2570 o          1 PAY      -0.788500
     20 O11         -5.4210     0.6930    -0.5750 o          1 PAY      -0.788500
     21 H411         4.0210    -1.0050    -0.3790 hc         1 PAY       0.023700
     22 H412         3.9840     0.1060     1.0830 hc         1 PAY       0.023700
     23 H321         2.3330     1.5060    -0.0490 hc         1 PAY       0.012700
     24 H322         2.4250     0.5080    -1.4920 hc         1 PAY       0.012700
     25 H31          1.5540    -1.4440    -0.2330 hc         1 PAY       0.046700
     26 H221        -0.2450     1.0110    -0.0110 hc         1 PAY       0.005200
     27 H222         0.0350     0.1210    -1.4930 hc         1 PAY       0.005200
     28 H21         -1.2960    -1.0370     1.0080 hc         1 PAY       0.053700
     29 H121        -2.5450    -0.2650    -1.6740 hc         1 PAY       0.021200
     30 H122        -3.3560    -1.1750    -0.4150 hc         1 PAY       0.021200
     31 H11         -2.3680     1.7100    -0.1500 hc         1 PAY       0.028700
     32 H101        -3.9810     0.0320     1.8490 hc         1 PAY       0.013700
     33 H102        -2.3530     0.7080     2.0900 hc         1 PAY       0.013700
     34 H103        -3.7450     1.7900     1.9540 hc         1 PAY       0.013700
@<TRIPOS>BOND
     1     1     3 1   
     2     2     3 1   
     3     3     4 1   
     4     4     5 1   
     5     4    21 1   
     6     4    22 1   
     7     5     6 1   
     8     5    23 1   
     9     5    24 1   
    10     6     7 1   
    11     6    10 1   
    12     6    25 1   
    13     7     8 1   
    14     7     9 1   
    15    10    11 1   
    16    10    26 1   
    17    10    27 1   
    18    11    12 1   
    19    11    15 1   
    20    11    28 1   
    21    12    13 1   
    22    12    14 1   
    23    15    16 1   
    24    15    29 1   
    25    15    30 1   
    26    16    17 1   
    27    16    18 1   
    28    16    31 1   
    29    17    32 1   
    30    17    33 1   
    31    17    34 1   
    32    18    19 1   
    33    18    20 1   
@<TRIPOS>SUBSTRUCTURE
     1 PAY         1 TEMP              0 ****  ****    0 ROOT
