@<TRIPOS>MOLECULE
PB0
   97   100     1     0     0
SMALL
bcc


@<TRIPOS>ATOM
      1 C1          -1.4280     7.3460    -2.0790 ca         1 PB0      -0.130000
      2 C2          -1.4090     6.5450    -3.2130 ca         1 PB0      -0.128500
      3 C3          -1.7920     6.7940    -0.8570 ca         1 PB0      -0.128500
      4 C4          -1.7520     5.2020    -3.1240 ca         1 PB0      -0.124000
      5 C5          -2.1360     5.4520    -0.7730 ca         1 PB0      -0.124000
      6 C6          -0.1740    -2.5500    -2.8100 ca         1 PB0      -0.180500
      7 C7           0.7250    -3.5360    -0.8090 ca         1 PB0      -0.180500
      8 C8          -1.4800    -4.1850    -1.5810 ca         1 PB0      -0.222000
      9 C9          -2.1210     4.6380    -1.9050 ca         1 PB0      -0.083300
     10 C10          0.8570    -2.6590    -1.8820 ca         1 PB0      -0.017300
     11 C11         -1.3120    -3.3150    -2.6400 ca         1 PB0       0.163900
     12 C12         -0.4330    -4.2710    -0.6820 ca         1 PB0       0.163900
     13 C13         -3.0210     0.7640     0.7150 c          1 PB0       0.692500
     14 C14         -2.5000    -1.4270     2.7710 c          1 PB0       0.679100
     15 C15         -0.3740     0.0660    -0.6380 c          1 PB0       0.650100
     16 C16         -4.7070    -0.6810    -0.1190 c5         1 PB0      -0.107400
     17 C17          5.6830     0.5580    -0.5310 c5         1 PB0      -0.092400
     18 C18         -3.5500    -0.6000    -1.1060 c5         1 PB0       0.088000
     19 C19          5.3480    -0.5540     1.5330 c5         1 PB0       0.114800
     20 C20          6.4710    -0.0100     0.6420 c5         1 PB0       0.115100
     21 C21          4.4950    -0.4080    -0.6730 c5         1 PB0       0.131500
     22 C22         -4.0800    -0.2500     1.2100 c5         1 PB0       0.066400
     23 C23         -1.6770    -2.6880     2.8780 c3         1 PB0      -0.179100
     24 C24          9.9950     1.1100     3.7970 c3         1 PB0      -0.090100
     25 C25         -6.7020     0.2920     4.0570 c3         1 PB0      -0.087100
     26 C26         -6.8400    -1.4280     2.2480 c3         1 PB0      -0.087100
     27 C27         -2.4550     3.1770    -1.7940 c3         1 PB0      -0.024100
     28 C28          2.0730    -1.7860    -1.9810 c3         1 PB0      -0.058100
     29 C29         -5.0310     0.3840     2.2210 c3         1 PB0      -0.062400
     30 C30          8.9730     1.6150     2.7890 c3         1 PB0      -0.080400
     31 C31         -1.2580     2.3750    -1.2860 c3         1 PB0      -0.071400
     32 C33         -1.5380     0.8680    -1.2480 c3         1 PB0       0.043700
     33 C34          3.1970     0.3210    -1.0140 c3         1 PB0       0.142100
     34 C35         -5.9010    -0.5490     3.0670 c3         1 PB0      -0.053700
     35 C36          1.9710    -0.5990    -1.0070 c3         1 PB0       0.085700
     36 N37          4.3770    -1.1220     0.6080 n7         1 PB0      -0.797200
     37 N38         -2.7630     0.4990    -0.5870 n          1 PB0      -0.466800
     38 N40          0.7890     0.1800    -1.3030 ns         1 PB0      -0.567900
     39 O41         -2.5100     1.6450     1.3760 o          1 PB0      -0.575500
     40 O42         -2.3880    -0.5110     3.5690 o          1 PB0      -0.581100
     41 O43         -0.5230    -0.6130     0.3610 o          1 PB0      -0.592100
     42 O44          3.3140     1.0320    -2.2300 oh         1 PB0      -0.594800
     43 O45          7.2790     0.9750     1.2260 os         1 PB0      -0.397600
     44 F46         -2.3060    -3.2020    -3.5340 f          1 PB0      -0.139900
     45 F47         -0.5600    -5.1080     0.3580 f          1 PB0      -0.139900
     46 H1          -1.1640     8.3930    -2.1470 ha         1 PB0       0.128000
     47 H2          -1.1290     6.9660    -4.1700 ha         1 PB0       0.129000
     48 H3          -1.8110     7.4120     0.0320 ha         1 PB0       0.129000
     49 H4          -1.7370     4.5820    -4.0130 ha         1 PB0       0.132000
     50 H5          -2.4220     5.0280     0.1830 ha         1 PB0       0.132000
     51 H6          -0.0950    -1.8750    -3.6540 ha         1 PB0       0.154500
     52 H7           1.5100    -3.6310    -0.0690 ha         1 PB0       0.154500
     53 H8          -2.3800    -4.7750    -1.4660 ha         1 PB0       0.167000
     54 H16         -5.4890     0.0260    -0.3990 hc         1 PB0       0.066200
     55 H16A        -5.1540    -1.6730    -0.0900 hc         1 PB0       0.066200
     56 H17          5.3370     1.5630    -0.2710 hc         1 PB0       0.071200
     57 H17A         6.2730     0.6340    -1.4440 hc         1 PB0       0.071200
     58 H18         -2.9640    -1.5250    -1.1340 h1         1 PB0       0.044700
     59 H18A        -3.8850    -0.3900    -2.1230 h1         1 PB0       0.044700
     60 H19          5.6730    -1.3080     2.2500 h1         1 PB0       0.065200
     61 H19A         4.9090     0.2740     2.1010 h1         1 PB0       0.065200
     62 H20          7.0860    -0.8560     0.2960 h1         1 PB0       0.028700
     63 H21          4.7050    -1.1320    -1.4690 h1         1 PB0       0.032700
     64 H23         -0.6920    -2.4910     2.4540 hc         1 PB0       0.060033
     65 H23A        -1.5480    -2.9630     3.9230 hc         1 PB0       0.060033
     66 H23B        -2.1050    -3.5330     2.3430 hc         1 PB0       0.060033
     67 H24         10.5360     1.9370     4.2580 hc         1 PB0       0.034700
     68 H24A         9.5170     0.5420     4.5980 hc         1 PB0       0.034700
     69 H24B        10.7310     0.4570     3.3250 hc         1 PB0       0.034700
     70 H25         -7.3000    -0.3390     4.7170 hc         1 PB0       0.030200
     71 H25A        -6.0490     0.9030     4.6830 hc         1 PB0       0.030200
     72 H25B        -7.3870     0.9660     3.5350 hc         1 PB0       0.030200
     73 H26         -7.4710    -0.8260     1.5900 hc         1 PB0       0.030200
     74 H26A        -6.3030    -2.1470     1.6300 hc         1 PB0       0.030200
     75 H26B        -7.4990    -2.0010     2.9030 hc         1 PB0       0.030200
     76 H27         -3.3000     3.0430    -1.1170 hc         1 PB0       0.050200
     77 H27A        -2.7640     2.7910    -2.7700 hc         1 PB0       0.050200
     78 H28          2.9630    -2.3760    -1.7510 hc         1 PB0       0.051700
     79 H28A         2.1880    -1.4230    -3.0060 hc         1 PB0       0.051700
     80 H29         -4.4440     1.0010     2.9030 hc         1 PB0       0.063700
     81 H29A        -5.6800     1.0740     1.6710 hc         1 PB0       0.063700
     82 H30          8.2780     2.3030     3.2790 hc         1 PB0       0.053200
     83 H30A         9.4780     2.1810     2.0010 hc         1 PB0       0.053200
     84 H31         -0.4150     2.5460    -1.9600 hc         1 PB0       0.064200
     85 H31A        -0.9550     2.7380    -0.3040 hc         1 PB0       0.064200
     86 H32          8.8860    -0.2380     1.6930 h1         1 PB0       0.020700
     87 H32A         7.6760    -0.0860     2.9660 h1         1 PB0       0.020700
     88 H33         -1.6480     0.5420    -2.2890 h1         1 PB0       0.056700
     89 H34          3.0210     1.0780    -0.2420 h1         1 PB0       0.102700
     90 H35         -5.2390    -1.2020     3.6450 hc         1 PB0       0.059700
     91 H36          1.8690    -0.9870     0.0060 h1         1 PB0       0.111700
     92 HN37         4.5740    -2.1020     0.4700 hn         1 PB0       0.352800
     93 HN40         0.8200     0.7470    -2.1370 hn         1 PB0       0.319500
     94 HO44         3.6620     0.4410    -2.9060 ho         1 PB0       0.396000
     95 N39         -3.3530    -1.4090     1.7240 ns         1 PB0      -0.568900
     96 C32          8.1950     0.4710     2.1730 c3         1 PB0       0.137400
     97 HN39        -3.2950    -2.1970     1.0990 hn         1 PB0       0.303500
@<TRIPOS>BOND
     1     1     2 ar  
     2     1     3 ar  
     3     1    46 1   
     4     2     4 ar  
     5     2    47 1   
     6     3     5 ar  
     7     3    48 1   
     8     4     9 ar  
     9     4    49 1   
    10     5     9 ar  
    11     5    50 1   
    12     6    10 ar  
    13     6    11 ar  
    14     6    51 1   
    15     7    10 ar  
    16     7    12 ar  
    17     7    52 1   
    18     8    11 ar  
    19     8    12 ar  
    20     8    53 1   
    21     9    27 1   
    22    10    28 1   
    23    11    44 1   
    24    12    45 1   
    25    13    22 1   
    26    13    37 1   
    27    13    39 2   
    28    14    23 1   
    29    14    40 2   
    30    14    95 1   
    31    15    32 1   
    32    15    38 1   
    33    15    41 2   
    34    16    18 1   
    35    16    22 1   
    36    16    54 1   
    37    16    55 1   
    38    17    20 1   
    39    17    21 1   
    40    17    56 1   
    41    17    57 1   
    42    18    37 1   
    43    18    58 1   
    44    18    59 1   
    45    19    20 1   
    46    19    36 1   
    47    19    60 1   
    48    19    61 1   
    49    20    43 1   
    50    20    62 1   
    51    21    33 1   
    52    21    36 1   
    53    21    63 1   
    54    22    29 1   
    55    22    95 1   
    56    23    64 1   
    57    23    65 1   
    58    23    66 1   
    59    24    30 1   
    60    24    67 1   
    61    24    68 1   
    62    24    69 1   
    63    25    34 1   
    64    25    70 1   
    65    25    71 1   
    66    25    72 1   
    67    26    34 1   
    68    26    73 1   
    69    26    74 1   
    70    26    75 1   
    71    27    31 1   
    72    27    76 1   
    73    27    77 1   
    74    28    35 1   
    75    28    78 1   
    76    28    79 1   
    77    29    34 1   
    78    29    80 1   
    79    29    81 1   
    80    30    82 1   
    81    30    83 1   
    82    30    96 1   
    83    31    32 1   
    84    31    84 1   
    85    31    85 1   
    86    32    37 1   
    87    32    88 1   
    88    33    35 1   
    89    33    42 1   
    90    33    89 1   
    91    34    90 1   
    92    35    38 1   
    93    35    91 1   
    94    36    92 1   
    95    38    93 1   
    96    42    94 1   
    97    43    96 1   
    98    86    96 1   
    99    87    96 1   
   100    95    97 1   
@<TRIPOS>SUBSTRUCTURE
     1 PB0         1 TEMP              0 ****  ****    0 ROOT
