@<TRIPOS>MOLECULE
PB0
   97   100     1     0     0
SMALL
No Charge or Current Charge


@<TRIPOS>ATOM
      1 C1          -1.8060     7.2520    -2.2450 ca         1 PB0      -0.112000
      2 C2          -1.3960     6.3790    -3.2670 ca         1 PB0      -0.110500
      3 C3          -2.4300     6.7410    -1.0950 ca         1 PB0      -0.110500
      4 C4          -1.6120     4.9960    -3.1390 ca         1 PB0      -0.106000
      5 C5          -2.6450     5.3580    -0.9670 ca         1 PB0      -0.106000
      6 C6           0.1250    -2.4890    -2.3440 ca         1 PB0      -0.162500
      7 C7           1.0270    -3.5420    -0.3490 ca         1 PB0      -0.162500
      8 C8          -1.1390    -4.2400    -1.2200 ca         1 PB0      -0.204000
      9 C9          -2.2390     4.4780    -1.9890 ca         1 PB0      -0.083300
     10 C10          1.1530    -2.5980    -1.3850 ca         1 PB0      -0.017300
     11 C11         -1.0150    -3.3030    -2.2540 ca         1 PB0       0.199000
     12 C12         -0.1140    -4.3570    -0.2710 ca         1 PB0       0.199000
     13 C13         -3.1600     0.4940     0.9560 c          1 PB0       0.550000
     14 C14         -3.4960    -2.1900     2.3760 c          1 PB0       0.612100
     15 C15         -0.2620     0.0620    -0.2410 c          1 PB0       0.583100
     16 C16         -5.1030    -0.2150    -0.3170 c5         1 PB0      -0.107400
     17 C17          5.9500     1.0220    -0.1700 c5         1 PB0      -0.092400
     18 C18         -3.8420    -0.3050    -1.2300 c5         1 PB0       0.088000
     19 C19          6.1950    -0.4220     1.7030 c5         1 PB0       0.114800
     20 C20          7.0310     0.1800     0.5330 c5         1 PB0       0.138300
     21 C21          4.7970    -0.0150    -0.2050 c5         1 PB0       0.131500
     22 C22         -4.5110    -0.2770     1.1310 c5         1 PB0       0.066400
     23 C23         -3.2080    -3.6840     2.3360 c3         1 PB0      -0.179100
     24 C24         11.3020     1.1360     2.9910 c3         1 PB0      -0.090100
     25 C25         -7.2790     0.1710     3.9960 c3         1 PB0      -0.087100
     26 C26         -7.6290    -0.9510     1.7450 c3         1 PB0      -0.087100
     27 C27         -2.4680     2.9800    -1.8450 c3         1 PB0      -0.024100
     28 C28          2.3650    -1.6740    -1.4420 c3         1 PB0      -0.058100
     29 C29         -5.4150     0.3200     2.2610 c3         1 PB0      -0.062400
     30 C30         10.0810     1.6330     2.1920 c3         1 PB0      -0.080400
     31 C31         -1.3350     2.2980    -1.0440 c3         1 PB0      -0.071400
     32 C33         -1.4830     0.7550    -0.9220 c3         1 PB0       0.043700
     33 C34          3.4080     0.5850    -0.6070 c3         1 PB0       0.165300
     34 C35         -6.5870    -0.5470     2.8140 c3         1 PB0      -0.053700
     35 C36          2.2080    -0.4120    -0.5440 c3         1 PB0       0.085700
     36 N37          4.8120    -0.6090     1.1650 n7         1 PB0      -0.852400
     37 N38         -2.8160     0.3440    -0.3980 n          1 PB0      -0.399800
     38 N40          0.9510     0.2850    -0.8640 ns         1 PB0      -0.500900
     39 O41         -2.5400     1.1700     1.7680 o          1 PB0      -0.500000
     40 O42         -3.1460    -1.4900     3.3140 o          1 PB0      -0.581100
     41 O43         -0.3500    -0.6650     0.7400 o          1 PB0      -0.592100
     42 O44          3.4790     1.1910    -1.9170 oh         1 PB0      -0.657000
     43 O45          8.0400     1.0820     1.0470 os         1 PB0      -0.444000
     44 F46         -2.0020    -3.1780    -3.1660 f          1 PB0      -0.175000
     45 F47         -0.2270    -5.2580     0.7290 f          1 PB0      -0.175000
     46 H1          -1.6390     8.3230    -2.3440 ha         1 PB0       0.110000
     47 H2          -0.9120     6.7740    -4.1570 ha         1 PB0       0.111000
     48 H3          -2.7460     7.4160    -0.3020 ha         1 PB0       0.111000
     49 H4          -1.2890     4.3270    -3.9340 ha         1 PB0       0.114000
     50 H5          -3.1270     4.9690    -0.0720 ha         1 PB0       0.114000
     51 H6           0.1990    -1.7620    -3.1490 ha         1 PB0       0.136500
     52 H7           1.8040    -3.6380     0.4050 ha         1 PB0       0.136500
     53 H8          -2.0210    -4.8690    -1.1540 ha         1 PB0       0.149000
     54 H16         -5.6090     0.7440    -0.4800 hc         1 PB0       0.066200
     55 H16A        -5.8310    -0.9980    -0.5500 hc         1 PB0       0.066200
     56 H17          5.6820     1.9150     0.4070 hc         1 PB0       0.071200
     57 H17A         6.2580     1.3450    -1.1710 hc         1 PB0       0.071200
     58 H18         -3.5640    -1.3470    -1.4380 h1         1 PB0       0.044700
     59 H18A        -3.9890     0.2130    -2.1870 h1         1 PB0       0.044700
     60 H19          6.6240    -1.3700     2.0590 h1         1 PB0       0.065200
     61 H19A         6.1730     0.2710     2.5560 h1         1 PB0       0.065200
     62 H20          7.4740    -0.5820    -0.1230 h1         1 PB0       0.028700
     63 H21          5.0540    -0.7980    -0.9320 h1         1 PB0       0.032700
     64 H23         -2.6960    -3.9240     1.3980 hc         1 PB0       0.060033
     65 H23A        -2.6420    -4.0290     3.2080 hc         1 PB0       0.060033
     66 H23B        -4.1550    -4.2250     2.2290 hc         1 PB0       0.060033
     67 H24         11.9500     1.9780     3.2620 hc         1 PB0       0.034700
     68 H24A        10.9840     0.6360     3.9140 hc         1 PB0       0.034700
     69 H24B        11.8910     0.4260     2.3980 hc         1 PB0       0.034700
     70 H25         -8.0590    -0.4640     4.4350 hc         1 PB0       0.030200
     71 H25A        -6.5560     0.4060     4.7860 hc         1 PB0       0.030200
     72 H25B        -7.7450     1.1080     3.6660 hc         1 PB0       0.030200
     73 H26         -7.9630    -0.0790     1.1700 hc         1 PB0       0.030200
     74 H26A        -7.2130    -1.6930     1.0550 hc         1 PB0       0.030200
     75 H26B        -8.5080    -1.4090     2.2130 hc         1 PB0       0.030200
     76 H27         -3.4290     2.8020    -1.3470 hc         1 PB0       0.050200
     77 H27A        -2.5440     2.5110    -2.8340 hc         1 PB0       0.050200
     78 H28          3.2580    -2.2320    -1.1360 hc         1 PB0       0.051700
     79 H28A         2.5420    -1.3650    -2.4790 hc         1 PB0       0.051700
     80 H29         -4.7770     0.5730     3.1160 hc         1 PB0       0.063700
     81 H29A        -5.8180     1.2820     1.9200 hc         1 PB0       0.063700
     82 H30          9.5300     2.3630     2.7980 hc         1 PB0       0.053200
     83 H30A        10.4290     2.1550     1.2930 hc         1 PB0       0.053200
     84 H31         -0.3820     2.5370    -1.5320 hc         1 PB0       0.064200
     85 H31A        -1.2870     2.7390    -0.0420 hc         1 PB0       0.064200
     86 H32          9.6670    -0.2300     1.1570 h1         1 PB0       0.020700
     87 H32A         8.7630    -0.0200     2.6790 h1         1 PB0       0.020700
     88 H33         -1.4440     0.3790    -1.9530 h1         1 PB0       0.056700
     89 H34          3.1910     1.3680     0.1350 h1         1 PB0       0.102700
     90 H35         -6.1620    -1.4740     3.2190 hc         1 PB0       0.059700
     91 H36          2.1450    -0.7600     0.4970 h1         1 PB0       0.111700
     92 HN37         4.5880    -1.6110     1.1080 hn         1 PB0       0.408000
     93 HN40         0.9530     0.9100    -1.6620 hn         1 PB0       0.319500
     94 HO44         3.7920     0.5020    -2.5410 ho         1 PB0       0.435000
     95 N39         -4.1850    -1.7250     1.2690 ns         1 PB0      -0.501900
     96 C32          9.1280     0.4950     1.7800 c3         1 PB0       0.160600
     97 HN39        -4.4200    -2.4130     0.5650 hn         1 PB0       0.303500
@<TRIPOS>BOND
     1     1     2 ar  
     2     1     3 ar  
     3     1    46 1   
     4     2     4 ar  
     5     2    47 1   
     6     3     5 ar  
     7     3    48 1   
     8     4     9 ar  
     9     4    49 1   
    10     5     9 ar  
    11     5    50 1   
    12     6    10 ar  
    13     6    11 ar  
    14     6    51 1   
    15     7    10 ar  
    16     7    12 ar  
    17     7    52 1   
    18     8    11 ar  
    19     8    12 ar  
    20     8    53 1   
    21     9    27 1   
    22    10    28 1   
    23    11    44 1   
    24    12    45 1   
    25    13    22 1   
    26    13    37 1   
    27    13    39 2   
    28    14    23 1   
    29    14    40 2   
    30    14    95 1   
    31    15    32 1   
    32    15    38 1   
    33    15    41 2   
    34    16    18 1   
    35    16    22 1   
    36    16    54 1   
    37    16    55 1   
    38    17    20 1   
    39    17    21 1   
    40    17    56 1   
    41    17    57 1   
    42    18    37 1   
    43    18    58 1   
    44    18    59 1   
    45    19    20 1   
    46    19    36 1   
    47    19    60 1   
    48    19    61 1   
    49    20    43 1   
    50    20    62 1   
    51    21    33 1   
    52    21    36 1   
    53    21    63 1   
    54    22    29 1   
    55    22    95 1   
    56    23    64 1   
    57    23    65 1   
    58    23    66 1   
    59    24    30 1   
    60    24    67 1   
    61    24    68 1   
    62    24    69 1   
    63    25    34 1   
    64    25    70 1   
    65    25    71 1   
    66    25    72 1   
    67    26    34 1   
    68    26    73 1   
    69    26    74 1   
    70    26    75 1   
    71    27    31 1   
    72    27    76 1   
    73    27    77 1   
    74    28    35 1   
    75    28    78 1   
    76    28    79 1   
    77    29    34 1   
    78    29    80 1   
    79    29    81 1   
    80    30    82 1   
    81    30    83 1   
    82    30    96 1   
    83    31    32 1   
    84    31    84 1   
    85    31    85 1   
    86    32    37 1   
    87    32    88 1   
    88    33    35 1   
    89    33    42 1   
    90    33    89 1   
    91    34    90 1   
    92    35    38 1   
    93    35    91 1   
    94    36    92 1   
    95    38    93 1   
    96    42    94 1   
    97    43    96 1   
    98    86    96 1   
    99    87    96 1   
   100    95    97 1   
@<TRIPOS>SUBSTRUCTURE
     1 PB0         1 TEMP              0 ****  ****    0 ROOT
