@<TRIPOS>MOLECULE
PB1
   34    33     1     0     0
SMALL
abcg2


@<TRIPOS>ATOM
      1 O3          -0.1340    -0.3840    -5.1470 o          1 PB1      -0.757500
      2 C8           0.1590     0.1730    -4.0660 c          1 PB1       0.713000
      3 O4           0.7870     1.2470    -3.9530 o          1 PB1      -0.757500
      4 C7          -0.2190    -0.5780    -2.7770 c3         1 PB1      -0.195400
      5 C6          -0.2680     0.2730    -1.5160 c3         1 PB1      -0.059400
      6 C3          -0.6080    -0.5190    -0.2450 c3         1 PB1      -0.057700
      7 C2          -2.0950    -0.8900    -0.2270 c3         1 PB1       0.160800
      8 N1          -2.9570     0.2740    -0.0650 n8         1 PB1      -0.992200
      9 C4          -0.1630     0.2240     1.0350 c3         1 PB1      -0.036700
     10 C9          -0.6220    -0.4730     2.3180 c3         1 PB1      -0.202400
     11 C10         -0.4080     0.3210     3.6210 c          1 PB1       0.713000
     12 O1          -0.4930     1.5650     3.5590 o          1 PB1      -0.752500
     13 O2          -0.1590    -0.3450     4.6480 o          1 PB1      -0.752500
     14 C5           1.3560     0.4690     1.0700 c3         1 PB1      -0.064400
     15 C11          2.2310    -0.7540     0.8310 c3         1 PB1       0.140800
     16 N12          3.6290    -0.4370     1.1000 n8         1 PB1      -0.995200
     17 H71          0.5220    -1.3770    -2.6340 hc         1 PB1       0.007200
     18 H72         -1.1670    -1.0970    -2.9410 hc         1 PB1       0.007200
     19 H61         -1.0060     1.0720    -1.6250 hc         1 PB1       0.049700
     20 H62          0.6970     0.7710    -1.4120 hc         1 PB1       0.049700
     21 H3          -0.0700    -1.4750    -0.2840 hc         1 PB1       0.020700
     22 H21         -2.2630    -1.6640     0.5330 h1         1 PB1       0.009700
     23 H22         -2.3500    -1.3590    -1.1810 h1         1 PB1       0.009700
     24 HN11        -3.9240    -0.0140    -0.1350 hn         1 PB1       0.380500
     25 HN12        -2.8540     0.6490     0.8700 hn         1 PB1       0.380500
     26 H4          -0.6310     1.2140     1.0240 hc         1 PB1       0.068700
     27 H91         -0.1580    -1.4590     2.4100 hc         1 PB1       0.009200
     28 H92         -1.7000    -0.6680     2.2740 hc         1 PB1       0.009200
     29 H51          1.6190     0.8950     2.0410 hc         1 PB1       0.049200
     30 H52          1.6290     1.2330     0.3350 hc         1 PB1       0.049200
     31 H111         1.9330    -1.5650     1.5030 h1         1 PB1       0.027700
     32 H112         2.0690    -1.1280    -0.1900 h1         1 PB1       0.027700
     33 H121         4.2010    -1.2430     0.8800 hn         1 PB1       0.369000
     34 H122         3.9300     0.2860     0.4580 hn         1 PB1       0.369000
@<TRIPOS>BOND
     1     1     2 1   
     2     2     3 1   
     3     2     4 1   
     4     4     5 1   
     5     4    17 1   
     6     4    18 1   
     7     5     6 1   
     8     5    19 1   
     9     5    20 1   
    10     6     7 1   
    11     6     9 1   
    12     6    21 1   
    13     7     8 1   
    14     7    22 1   
    15     7    23 1   
    16     8    24 1   
    17     8    25 1   
    18     9    10 1   
    19     9    14 1   
    20     9    26 1   
    21    10    11 1   
    22    10    27 1   
    23    10    28 1   
    24    11    12 1   
    25    11    13 1   
    26    14    15 1   
    27    14    29 1   
    28    14    30 1   
    29    15    16 1   
    30    15    31 1   
    31    15    32 1   
    32    16    33 1   
    33    16    34 1   
@<TRIPOS>SUBSTRUCTURE
     1 PB1         1 TEMP              0 ****  ****    0 ROOT
