@<TRIPOS>MOLECULE
PB1
   34    33     1     0     0
SMALL
No Charge or Current Charge


@<TRIPOS>ATOM
      1 O3          -0.2810     0.9890    -4.6570 o          1 PB1      -0.757500
      2 C8           0.2960     0.0880    -4.0660 c          1 PB1       0.713000
      3 O4           1.4370    -0.2620    -4.3230 o          1 PB1      -0.757500
      4 C7          -0.4340    -0.6060    -2.8980 c3         1 PB1      -0.195400
      5 C6          -0.1520     0.1450    -1.5660 c3         1 PB1      -0.059400
      6 C3          -0.6180    -0.5890    -0.2600 c3         1 PB1      -0.057700
      7 C2          -2.1350    -0.9690    -0.3270 c3         1 PB1       0.160800
      8 N1          -3.0420     0.1960    -0.2990 n8         1 PB1      -0.992200
      9 C4          -0.2180     0.1810     1.0690 c3         1 PB1      -0.036700
     10 C9          -0.6690    -0.5830     2.3650 c3         1 PB1      -0.202400
     11 C10         -0.3360     0.1770     3.6690 c          1 PB1       0.713000
     12 O1          -1.1040     1.0550     4.0340 o          1 PB1      -0.752500
     13 O2           0.6760    -0.1260     4.2810 o          1 PB1      -0.752500
     14 C5           1.2930     0.5950     1.1280 c3         1 PB1      -0.064400
     15 C11          2.3030    -0.5780     1.0670 c3         1 PB1       0.140800
     16 N12          3.7000    -0.0990     1.0960 n8         1 PB1      -0.995200
     17 H71         -0.0490    -1.6230    -2.7580 hc         1 PB1       0.007200
     18 H72         -1.5180    -0.5590    -3.0560 hc         1 PB1       0.007200
     19 H61         -0.6060     1.1430    -1.6090 hc         1 PB1       0.049700
     20 H62          0.9310     0.2980    -1.5260 hc         1 PB1       0.049700
     21 H3          -0.0820    -1.5460    -0.2400 hc         1 PB1       0.020700
     22 H21         -2.3970    -1.6280     0.5100 h1         1 PB1       0.009700
     23 H22         -2.3410    -1.5400    -1.2400 h1         1 PB1       0.009700
     24 HN11        -4.0110    -0.1390    -0.2740 hn         1 PB1       0.380500
     25 HN12        -2.9240     0.6750     0.6000 hn         1 PB1       0.380500
     26 H4          -0.7740     1.1270     1.0620 hc         1 PB1       0.068700
     27 H91         -0.1740    -1.5610     2.3530 hc         1 PB1       0.009200
     28 H92         -1.7610    -0.6500     2.3030 hc         1 PB1       0.009200
     29 H51          1.4790     1.1690     2.0420 hc         1 PB1       0.049200
     30 H52          1.5110     1.3030     0.3210 hc         1 PB1       0.049200
     31 H111         2.1470    -1.2510     1.9210 h1         1 PB1       0.027700
     32 H112         2.1580    -1.1520     0.1420 h1         1 PB1       0.027700
     33 H121         4.3300    -0.9030     0.9970 hn         1 PB1       0.369000
     34 H122         3.8780     0.4580     0.2530 hn         1 PB1       0.369000
@<TRIPOS>BOND
     1     1     2 1   
     2     2     3 1   
     3     2     4 1   
     4     4     5 1   
     5     4    17 1   
     6     4    18 1   
     7     5     6 1   
     8     5    19 1   
     9     5    20 1   
    10     6     7 1   
    11     6     9 1   
    12     6    21 1   
    13     7     8 1   
    14     7    22 1   
    15     7    23 1   
    16     8    24 1   
    17     8    25 1   
    18     9    10 1   
    19     9    14 1   
    20     9    26 1   
    21    10    11 1   
    22    10    27 1   
    23    10    28 1   
    24    11    12 1   
    25    11    13 1   
    26    14    15 1   
    27    14    29 1   
    28    14    30 1   
    29    15    16 1   
    30    15    31 1   
    31    15    32 1   
    32    16    33 1   
    33    16    34 1   
@<TRIPOS>SUBSTRUCTURE
     1 PB1         1 TEMP              0 ****  ****    0 ROOT
