@<TRIPOS>MOLECULE
PB2
   32    34     1     0     0
SMALL
abcg2


@<TRIPOS>ATOM
      1 CDB         -3.3750    -1.1540     0.5860 ca         1 PB2      -0.097000
      2 CDC         -4.7150    -1.1910     0.9410 ca         1 PB2      -0.111000
      3 CDD         -5.5260    -0.0830     0.7280 ca         1 PB2      -0.104000
      4 CDE         -4.9850     1.0610     0.1570 ca         1 PB2      -0.111000
      5 CDF         -3.6440     1.0980    -0.1980 ca         1 PB2      -0.097000
      6 CDA         -2.8190    -0.0090     0.0110 cp         1 PB2      -0.042000
      7 CCD         -1.3930     0.0250    -0.3700 cp         1 PB2      -0.017000
      8 CCE         -0.6260     1.1780    -0.1830 ca         1 PB2      -0.101000
      9 CCF          0.7120     1.2060    -0.5390 ca         1 PB2      -0.089500
     10 CCC         -0.7760    -1.0920    -0.9310 ca         1 PB2      -0.101000
     11 CCB          0.5630    -1.0600    -1.2910 ca         1 PB2      -0.089500
     12 CCA          1.3230     0.0870    -1.0980 ca         1 PB2      -0.118300
     13 CAA          2.7850     0.1120    -1.4510 c3         1 PB2       0.122900
     14 NAB          3.6260    -0.0140    -0.2750 na         1 PB2      -0.168500
     15 CAF          3.7220    -1.1060     0.5420 cc         1 PB2      -0.227000
     16 CAE          4.5870    -0.7430     1.5340 cd         1 PB2       0.226900
     17 NAD          5.0140     0.5410     1.3440 nd         1 PB2      -0.672000
     18 CAC          4.4150     0.9450     0.2530 cc         1 PB2       0.385400
     19 HDB         -2.7500    -2.0180     0.7750 ha         1 PB2       0.114000
     20 HDC         -5.1250    -2.0850     1.3930 ha         1 PB2       0.114000
     21 HDD         -6.5720    -0.1110     1.0050 ha         1 PB2       0.114000
     22 HDE         -5.6110     1.9260    -0.0220 ha         1 PB2       0.114000
     23 HDF         -3.2440     1.9900    -0.6650 ha         1 PB2       0.114000
     24 HCE         -1.0720     2.0580     0.2620 ha         1 PB2       0.119500
     25 HCF          1.2860     2.1110    -0.3760 ha         1 PB2       0.114500
     26 HCC         -1.3500    -1.9930    -1.1110 ha         1 PB2       0.119500
     27 HCB          1.0170    -1.9390    -1.7330 ha         1 PB2       0.114500
     28 HAA          3.0250    -0.6950    -2.1440 h1         1 PB2       0.064200
     29 HAAA         3.0530     1.0490    -1.9390 h1         1 PB2       0.064200
     30 HAF          3.1810    -2.0180     0.3520 h4         1 PB2       0.156000
     31 HAE          4.9240    -1.3390     2.3680 h4         1 PB2       0.036100
     32 HAC          4.5180     1.9170    -0.2070 h5         1 PB2       0.050100
@<TRIPOS>BOND
     1     1     2 ar  
     2     1     6 ar  
     3     1    19 1   
     4     2     3 ar  
     5     2    20 1   
     6     3     4 ar  
     7     3    21 1   
     8     4     5 ar  
     9     4    22 1   
    10     5     6 ar  
    11     5    23 1   
    12     6     7 1   
    13     7     8 ar  
    14     7    10 ar  
    15     8     9 ar  
    16     8    24 1   
    17     9    12 ar  
    18     9    25 1   
    19    10    11 ar  
    20    10    26 1   
    21    11    12 ar  
    22    11    27 1   
    23    12    13 1   
    24    13    14 1   
    25    13    28 1   
    26    13    29 1   
    27    14    15 1   
    28    14    18 1   
    29    15    16 2   
    30    15    30 1   
    31    16    17 1   
    32    16    31 1   
    33    17    18 2   
    34    18    32 1   
@<TRIPOS>SUBSTRUCTURE
     1 PB2         1 TEMP              0 ****  ****    0 ROOT
