@<TRIPOS>MOLECULE
PB2
   32    34     1     0     0
SMALL
No Charge or Current Charge


@<TRIPOS>ATOM
      1 CDB         -3.3850    -0.7950     1.0110 ca         1 PB2      -0.097000
      2 CDC         -4.7580    -0.8980     1.2940 ca         1 PB2      -0.111000
      3 CDD         -5.6850    -0.1270     0.5750 ca         1 PB2      -0.104000
      4 CDE         -5.2370     0.7490    -0.4270 ca         1 PB2      -0.111000
      5 CDF         -3.8630     0.8530    -0.7090 ca         1 PB2      -0.097000
      6 CDA         -2.9080     0.0830     0.0040 cp         1 PB2      -0.042000
      7 CCD         -1.4440     0.1940    -0.2970 cp         1 PB2      -0.017000
      8 CCE         -0.8650     1.4280    -0.6820 ca         1 PB2      -0.101000
      9 CCF          0.5080     1.5330    -0.9640 ca         1 PB2      -0.089500
     10 CCC         -0.5900    -0.9330    -0.2090 ca         1 PB2      -0.101000
     11 CCB          0.7830    -0.8310    -0.4910 ca         1 PB2      -0.089500
     12 CCA          1.3440     0.4050    -0.8660 ca         1 PB2      -0.118300
     13 CAA          2.8340     0.5290    -1.1780 c3         1 PB2       0.122900
     14 NAB          3.7040    -0.1240    -0.1880 na         1 PB2      -0.168500
     15 CAF          4.3050    -1.3600    -0.3060 cc         1 PB2      -0.227000
     16 CAE          5.0080    -1.5380     0.8570 cd         1 PB2       0.226900
     17 NAD          4.8570    -0.4470     1.6890 nd         1 PB2      -0.672000
     18 CAC          4.0630     0.3930     1.0380 cc         1 PB2       0.385400
     19 HDB         -2.6840    -1.3910     1.5890 ha         1 PB2       0.114000
     20 HDC         -5.1030    -1.5750     2.0730 ha         1 PB2       0.114000
     21 HDD         -6.7480    -0.2070     0.7930 ha         1 PB2       0.114000
     22 HDE         -5.9530     1.3450    -0.9880 ha         1 PB2       0.114000
     23 HDF         -3.5400     1.5270    -1.4980 ha         1 PB2       0.114000
     24 HCE         -1.4830     2.3200    -0.7510 ha         1 PB2       0.119500
     25 HCF          0.9210     2.4970    -1.2540 ha         1 PB2       0.114500
     26 HCC         -0.9970    -1.9030     0.0670 ha         1 PB2       0.119500
     27 HCB          1.4080    -1.7180    -0.4200 ha         1 PB2       0.114500
     28 HAA          3.0290     0.0860    -2.1620 h1         1 PB2       0.064200
     29 HAAA         3.1140     1.5890    -1.2360 h1         1 PB2       0.064200
     30 HAF          4.1960    -1.9990    -1.1730 h4         1 PB2       0.156000
     31 HAE          5.6140    -2.3910     1.1410 h4         1 PB2       0.036100
     32 HAC          3.7210     1.3610     1.3860 h5         1 PB2       0.050100
@<TRIPOS>BOND
     1     1     2 ar  
     2     1     6 ar  
     3     1    19 1   
     4     2     3 ar  
     5     2    20 1   
     6     3     4 ar  
     7     3    21 1   
     8     4     5 ar  
     9     4    22 1   
    10     5     6 ar  
    11     5    23 1   
    12     6     7 1   
    13     7     8 ar  
    14     7    10 ar  
    15     8     9 ar  
    16     8    24 1   
    17     9    12 ar  
    18     9    25 1   
    19    10    11 ar  
    20    10    26 1   
    21    11    12 ar  
    22    11    27 1   
    23    12    13 1   
    24    13    14 1   
    25    13    28 1   
    26    13    29 1   
    27    14    15 1   
    28    14    18 1   
    29    15    16 2   
    30    15    30 1   
    31    16    17 1   
    32    16    31 1   
    33    17    18 2   
    34    18    32 1   
@<TRIPOS>SUBSTRUCTURE
     1 PB2         1 TEMP              0 ****  ****    0 ROOT
