@<TRIPOS>MOLECULE
PB3
   50    52     1     0     0
SMALL
abcg2


@<TRIPOS>ATOM
      1 C1          -0.9110    -0.1170    -1.1740 ca         1 PB3       0.053500
      2 C2          -1.6400     0.0040    -0.0030 ca         1 PB3      -0.104000
      3 C3          -0.9020     0.0960     1.1650 ca         1 PB3       0.053500
      4 N6           0.4150    -0.1410    -1.1780 nb         1 PB3      -0.175000
      5 C7           1.7090    -2.1330     7.9800 c3         1 PB3      -0.047800
      6 C8           1.7850     2.1570    -7.8150 c3         1 PB3      -0.047800
      7 C9          -1.6110     0.2350     2.4880 c          1 PB3       0.499600
      8 C11         -1.3190     0.4290     4.9000 c3         1 PB3       0.153800
      9 C12         -0.1810     0.4120     5.8810 ca         1 PB3      -0.115300
     10 C15         -1.6290    -0.2320    -2.4940 c          1 PB3       0.499600
     11 C21          0.2480     0.7740    -6.3830 ca         1 PB3      -0.092500
     12 C24          1.4750    -1.5740    -7.1710 ca         1 PB3      -0.110000
     13 C30          0.5010     1.5860     6.1890 ca         1 PB3      -0.097000
     14 C31          1.5750     1.5530     7.0660 ca         1 PB3      -0.110000
     15 C32          1.9720     0.3520     7.6390 ca         1 PB3      -0.100000
     16 C34          0.2300    -0.7840     6.4590 ca         1 PB3      -0.092500
     17 N4           0.4230     0.0690     1.1640 nb         1 PB3      -0.175000
     18 C5           1.0240    -0.0470    -0.0080 ca         1 PB3       0.123900
     19 N10         -0.8070     0.2880     3.5480 ns         1 PB3      -0.483900
     20 N16         -0.8320    -0.3330    -3.5560 ns         1 PB3      -0.483900
     21 C17         -1.3510    -0.4730    -4.9050 c3         1 PB3       0.153800
     22 C18         -0.2190    -0.4410    -5.8920 ca         1 PB3      -0.115300
     23 C4           1.3200     0.8370    -7.2710 ca         1 PB3      -0.077300
     24 C23          1.9290    -0.3550    -7.6550 ca         1 PB3      -0.100000
     25 C25          0.4030    -1.6200    -6.2910 ca         1 PB3      -0.097000
     26 C6           1.3040    -0.8340     7.3450 ca         1 PB3      -0.077300
     27 O41         -2.8500    -0.2290    -2.5390 o          1 PB3      -0.593600
     28 O42         -2.8300     0.2900     2.5370 o          1 PB3      -0.593600
     29 H2          -2.7190     0.0250    -0.0010 ha         1 PB3       0.183000
     30 H71          1.0410    -2.3910     8.8040 hc         1 PB3       0.044033
     31 H72          1.6710    -2.9560     7.2660 hc         1 PB3       0.044033
     32 H73          2.7200    -2.0840     8.3830 hc         1 PB3       0.044033
     33 H81          1.1790     2.4620    -8.6710 hc         1 PB3       0.044033
     34 H82          1.7090     2.9470    -7.0690 hc         1 PB3       0.044033
     35 H83          2.8200     2.1080    -8.1520 hc         1 PB3       0.044033
     36 H111        -2.0180    -0.3830     5.1120 h1         1 PB3       0.058950
     37 H112        -1.8800     1.3630     4.9830 h1         1 PB3       0.058950
     38 H21         -0.2370     1.6920    -6.0710 ha         1 PB3       0.115000
     39 H24          1.9600    -2.4910    -7.4790 ha         1 PB3       0.115000
     40 H30          0.1900     2.5250     5.7450 ha         1 PB3       0.116500
     41 H31          2.1050     2.4660     7.3050 ha         1 PB3       0.115000
     42 H32          2.8120     0.3380     8.3240 ha         1 PB3       0.113000
     43 H34         -0.3010    -1.6990     6.2150 ha         1 PB3       0.115000
     44 H5           2.1060    -0.0680    -0.0110 h5         1 PB3       0.056100
     45 H10          0.1900     0.2360     3.3970 hn         1 PB3       0.347500
     46 H16          0.1660    -0.3430    -3.4060 hn         1 PB3       0.347500
     47 H171        -2.0570     0.3360    -5.1060 h1         1 PB3       0.058950
     48 H172        -1.9060    -1.4110    -4.9910 h1         1 PB3       0.058950
     49 H23          2.7670    -0.3310    -8.3430 ha         1 PB3       0.113000
     50 H25          0.0480    -2.5720    -5.9150 ha         1 PB3       0.116500
@<TRIPOS>BOND
     1     1     2 ar  
     2     1     4 ar  
     3     1    10 1   
     4     2     3 ar  
     5     2    29 1   
     6     3     7 1   
     7     3    17 ar  
     8     4    18 ar  
     9     5    26 1   
    10     5    30 1   
    11     5    31 1   
    12     5    32 1   
    13     6    23 1   
    14     6    33 1   
    15     6    34 1   
    16     6    35 1   
    17     7    19 1   
    18     7    28 2   
    19     8     9 1   
    20     8    19 1   
    21     8    36 1   
    22     8    37 1   
    23     9    13 ar  
    24     9    16 ar  
    25    10    20 1   
    26    10    27 2   
    27    11    22 ar  
    28    11    23 ar  
    29    11    38 1   
    30    12    24 ar  
    31    12    25 ar  
    32    12    39 1   
    33    13    14 ar  
    34    13    40 1   
    35    14    15 ar  
    36    14    41 1   
    37    15    26 ar  
    38    15    42 1   
    39    16    26 ar  
    40    16    43 1   
    41    17    18 ar  
    42    18    44 1   
    43    19    45 1   
    44    20    21 1   
    45    20    46 1   
    46    21    22 1   
    47    21    47 1   
    48    21    48 1   
    49    22    25 ar  
    50    23    24 ar  
    51    24    49 1   
    52    25    50 1   
@<TRIPOS>SUBSTRUCTURE
     1 PB3         1 TEMP              0 ****  ****    0 ROOT
