@<TRIPOS>MOLECULE
PB3
   50    52     1     0     0
SMALL
No Charge or Current Charge


@<TRIPOS>ATOM
      1 C1          -0.9390    -0.0720    -1.2050 ca         1 PB3       0.053500
      2 C2          -1.6580     0.0090     0.0080 ca         1 PB3      -0.104000
      3 C3          -0.9360     0.0760     1.2200 ca         1 PB3       0.053500
      4 N6           0.4170    -0.0850    -1.1960 nb         1 PB3      -0.175000
      5 C7           1.9480    -2.1080     8.0310 c3         1 PB3      -0.047800
      6 C8           1.9790     2.0560    -8.0200 c3         1 PB3      -0.047800
      7 C9          -1.6620     0.1640     2.5500 c          1 PB3       0.499600
      8 C11         -1.3690     0.3130     5.0420 c3         1 PB3       0.153800
      9 C12         -0.2230     0.3550     6.0400 ca         1 PB3      -0.115300
     10 C15         -1.6670    -0.1470    -2.5350 c          1 PB3       0.499600
     11 C21          0.3220     0.8220    -6.5430 ca         1 PB3      -0.092500
     12 C24          1.3400    -1.6650    -7.3570 ca         1 PB3      -0.110000
     13 C30          0.3170     1.5890     6.4500 ca         1 PB3      -0.097000
     14 C31          1.3780     1.6250     7.3700 ca         1 PB3      -0.110000
     15 C32          1.9070     0.4290     7.8830 ca         1 PB3      -0.100000
     16 C34          0.3120    -0.8420     6.5560 ca         1 PB3      -0.092500
     17 N4           0.4190     0.0620     1.2100 nb         1 PB3      -0.175000
     18 C5           1.0230    -0.0170     0.0070 ca         1 PB3       0.123900
     19 N10         -0.8660     0.2250     3.6740 ns         1 PB3      -0.483900
     20 N16         -0.8740    -0.2230    -3.6590 ns         1 PB3      -0.483900
     21 C17         -1.3790    -0.3010    -5.0260 c3         1 PB3       0.153800
     22 C18         -0.2350    -0.3650    -6.0260 ca         1 PB3      -0.115300
     23 C4           1.3860     0.7710    -7.4640 ca         1 PB3      -0.077300
     24 C23          1.8910    -0.4790    -7.8710 ca         1 PB3      -0.100000
     25 C25          0.2810    -1.6090    -6.4360 ca         1 PB3      -0.097000
     26 C6           1.3780    -0.8110     7.4760 ca         1 PB3      -0.077300
     27 O41         -2.8890    -0.1400    -2.6200 o          1 PB3      -0.593600
     28 O42         -2.8830     0.1810     2.6360 o          1 PB3      -0.593600
     29 H2          -2.7460     0.0190     0.0080 ha         1 PB3       0.183000
     30 H71          1.4010    -2.4220     8.9280 hc         1 PB3       0.044033
     31 H72          1.8830    -2.9190     7.2970 hc         1 PB3       0.044033
     32 H73          3.0040    -1.9970     8.3050 hc         1 PB3       0.044033
     33 H81          1.4380     2.3790    -8.9170 hc         1 PB3       0.044033
     34 H82          1.9280     2.8700    -7.2860 hc         1 PB3       0.044033
     35 H83          3.0330     1.9260    -8.2930 hc         1 PB3       0.044033
     36 H111        -2.0090    -0.5560     5.2440 h1         1 PB3       0.058950
     37 H112        -1.9840     1.2180     5.1400 h1         1 PB3       0.058950
     38 H21         -0.0730     1.7850    -6.2270 ha         1 PB3       0.115000
     39 H24          1.7360    -2.6280    -7.6720 ha         1 PB3       0.115000
     40 H30         -0.0850     2.5200     6.0560 ha         1 PB3       0.116500
     41 H31          1.7910     2.5810     7.6850 ha         1 PB3       0.115000
     42 H32          2.7270     0.4660     8.5960 ha         1 PB3       0.113000
     43 H34         -0.1000    -1.7980     6.2400 ha         1 PB3       0.115000
     44 H5           2.1120    -0.0270     0.0060 h5         1 PB3       0.056100
     45 H10          0.1370     0.2080     3.5290 hn         1 PB3       0.347500
     46 H16          0.1300    -0.2240    -3.5150 hn         1 PB3       0.347500
     47 H171        -2.0030     0.5800    -5.2280 h1         1 PB3       0.058950
     48 H172        -2.0110    -1.1940    -5.1240 h1         1 PB3       0.058950
     49 H23          2.7100    -0.5310    -8.5840 ha         1 PB3       0.113000
     50 H25         -0.1380    -2.5320    -6.0410 ha         1 PB3       0.116500
@<TRIPOS>BOND
     1     1     2 ar  
     2     1     4 ar  
     3     1    10 1   
     4     2     3 ar  
     5     2    29 1   
     6     3     7 1   
     7     3    17 ar  
     8     4    18 ar  
     9     5    26 1   
    10     5    30 1   
    11     5    31 1   
    12     5    32 1   
    13     6    23 1   
    14     6    33 1   
    15     6    34 1   
    16     6    35 1   
    17     7    19 1   
    18     7    28 2   
    19     8     9 1   
    20     8    19 1   
    21     8    36 1   
    22     8    37 1   
    23     9    13 ar  
    24     9    16 ar  
    25    10    20 1   
    26    10    27 2   
    27    11    22 ar  
    28    11    23 ar  
    29    11    38 1   
    30    12    24 ar  
    31    12    25 ar  
    32    12    39 1   
    33    13    14 ar  
    34    13    40 1   
    35    14    15 ar  
    36    14    41 1   
    37    15    26 ar  
    38    15    42 1   
    39    16    26 ar  
    40    16    43 1   
    41    17    18 ar  
    42    18    44 1   
    43    19    45 1   
    44    20    21 1   
    45    20    46 1   
    46    21    22 1   
    47    21    47 1   
    48    21    48 1   
    49    22    25 ar  
    50    23    24 ar  
    51    24    49 1   
    52    25    50 1   
@<TRIPOS>SUBSTRUCTURE
     1 PB3         1 TEMP              0 ****  ****    0 ROOT
