@<TRIPOS>MOLECULE
PB4
   50    52     1     0     0
SMALL
No Charge or Current Charge


@<TRIPOS>ATOM
      1 C1           1.7520     0.6600    -1.1920 ca         1 PB4       0.053000
      2 C2           1.8320    -0.0370     0.0340 ca         1 PB4      -0.103000
      3 C3           1.7290     0.6950     1.2380 ca         1 PB4       0.053000
      4 C7          -2.4650    -2.5340     5.5850 c3         1 PB4      -0.041300
      5 C8          -2.3520    -2.7040    -5.5250 c3         1 PB4      -0.041300
      6 C9           1.8070    -0.0080     2.5810 c          1 PB4       0.505600
      7 C10          1.7060     0.3260     5.0800 c3         1 PB4       0.156300
      8 C11          0.2920     0.1460     5.6110 ca         1 PB4      -0.132800
      9 C12          1.8550    -0.0810    -2.5120 c          1 PB4       0.505600
     10 C13          1.8020     0.1810    -5.0210 c3         1 PB4       0.156300
     11 C14          0.3980    -0.0170    -5.5720 ca         1 PB4      -0.132800
     12 C15         -0.3000    -1.2140    -5.3120 ca         1 PB4      -0.059000
     13 C16         -2.2020    -0.3870    -6.5790 ca         1 PB4       0.174000
     14 C19         -0.3310     1.1780     6.3380 ca         1 PB4      -0.078000
     15 C20         -1.6390     1.0080     6.8220 ca         1 PB4      -0.153000
     16 C21         -2.3270    -0.1910     6.5790 ca         1 PB4       0.174000
     17 C22         -0.4050    -1.0550     5.3690 ca         1 PB4      -0.059000
     18 N1           1.5580     2.0390     1.2070 nb         1 PB4      -0.177500
     19 C5           1.4930     2.6230    -0.0070 ca         1 PB4       0.124900
     20 N2           1.5810     2.0050    -1.2030 nb         1 PB4      -0.177500
     21 N3           1.6940     0.7990     3.6960 ns         1 PB4      -0.482900
     22 N4           1.7640     0.6940    -3.6510 ns         1 PB4      -0.482900
     23 C6          -1.6030    -1.4070    -5.8120 ca         1 PB4      -0.113800
     24 C17         -1.5130     0.8070    -6.8400 ca         1 PB4      -0.153000
     25 C18         -0.2140     0.9940    -6.3370 ca         1 PB4      -0.078000
     26 C4          -1.7180    -1.2320     5.8510 ca         1 PB4      -0.113800
     27 O1           2.0100    -1.2940    -2.5740 o          1 PB4      -0.589600
     28 O2           1.9600    -1.2190     2.6800 o          1 PB4      -0.589600
     29 F1          -3.5860    -0.3360     7.0520 f          1 PB4      -0.180500
     30 F2          -3.4520    -0.5490    -7.0700 f          1 PB4      -0.180500
     31 H2           1.9690    -1.1160     0.0510 ha         1 PB4       0.183000
     32 H71         -2.7410    -3.0270     6.5250 hc         1 PB4       0.048867
     33 H72         -3.3860    -2.3490     5.0200 hc         1 PB4       0.048867
     34 H73         -1.8600    -3.2420     5.0060 hc         1 PB4       0.048867
     35 H81         -2.6100    -3.2220    -6.4570 hc         1 PB4       0.048867
     36 H82         -1.7560    -3.3940    -4.9170 hc         1 PB4       0.048867
     37 H83         -3.2840    -2.5070    -4.9830 hc         1 PB4       0.048867
     38 H101         2.2430     1.0590     5.6960 h1         1 PB4       0.062450
     39 H102         2.2550    -0.6230     5.1460 h1         1 PB4       0.062450
     40 H131         2.3530    -0.7680    -5.0500 h1         1 PB4       0.062450
     41 H132         2.3490     0.8980    -5.6480 h1         1 PB4       0.062450
     42 H15          0.1730    -1.9920    -4.7160 ha         1 PB4       0.129500
     43 H19          0.1960     2.1110     6.5270 ha         1 PB4       0.112500
     44 H20         -2.1210     1.8040     7.3830 ha         1 PB4       0.131500
     45 H22          0.0770    -1.8500     4.8030 ha         1 PB4       0.129500
     46 H5           1.3550     3.7020    -0.0240 h5         1 PB4       0.056100
     47 HN3          1.5630     1.7900     3.5260 hn         1 PB4       0.343000
     48 HN4          1.6300     1.6890    -3.5130 hn         1 PB4       0.343000
     49 H17         -1.9870     1.5860    -7.4310 ha         1 PB4       0.131500
     50 H18          0.3140     1.9230    -6.5420 ha         1 PB4       0.112500
@<TRIPOS>BOND
     1     1     2 ar  
     2     1     9 1   
     3     1    20 ar  
     4     2     3 ar  
     5     2    31 1   
     6     3     6 1   
     7     3    18 ar  
     8     4    26 1   
     9     4    32 1   
    10     4    33 1   
    11     4    34 1   
    12     5    23 1   
    13     5    35 1   
    14     5    36 1   
    15     5    37 1   
    16     6    21 1   
    17     6    28 2   
    18     7     8 1   
    19     7    21 1   
    20     7    38 1   
    21     7    39 1   
    22     8    14 ar  
    23     8    17 ar  
    24     9    22 1   
    25     9    27 2   
    26    10    11 1   
    27    10    22 1   
    28    10    40 1   
    29    10    41 1   
    30    11    12 ar  
    31    11    25 ar  
    32    12    23 ar  
    33    12    42 1   
    34    13    23 ar  
    35    13    24 ar  
    36    13    30 1   
    37    14    15 ar  
    38    14    43 1   
    39    15    16 ar  
    40    15    44 1   
    41    16    26 ar  
    42    16    29 1   
    43    17    26 ar  
    44    17    45 1   
    45    18    19 ar  
    46    19    20 ar  
    47    19    46 1   
    48    21    47 1   
    49    22    48 1   
    50    24    25 ar  
    51    24    49 1   
    52    25    50 1   
@<TRIPOS>SUBSTRUCTURE
     1 PB4         1 TEMP              0 ****  ****    0 ROOT
