@<TRIPOS>MOLECULE
PB4
   50    52     1     0     0
SMALL
abcg2


@<TRIPOS>ATOM
      1 C1           1.7690     0.5850    -1.1570 ca         1 PB4       0.053000
      2 C2           1.6890    -0.0790     0.0550 ca         1 PB4      -0.103000
      3 C3           1.7130     0.7170     1.1880 ca         1 PB4       0.053000
      4 C7          -1.9300    -2.8890     6.1640 c3         1 PB4      -0.041300
      5 C8          -2.6190    -2.3620    -5.3890 c3         1 PB4      -0.041300
      6 C9           1.6300     0.0830     2.5530 c          1 PB4       0.505600
      7 C10          1.5920     0.5230     4.9510 c3         1 PB4       0.156300
      8 C11          0.1780     0.1890     5.3560 ca         1 PB4      -0.132800
      9 C12          1.7460    -0.2000    -2.4450 c          1 PB4       0.505600
     10 C13          1.8170    -0.0020    -4.8870 c3         1 PB4       0.156300
     11 C14          0.4150    -0.0450    -5.4430 ca         1 PB4      -0.132800
     12 C15         -0.4150    -1.1350    -5.1940 ca         1 PB4      -0.059000
     13 C16         -2.1720    -0.0970    -6.3900 ca         1 PB4       0.174000
     14 C19         -0.7620     1.2020     5.5150 ca         1 PB4      -0.078000
     15 C20         -2.0670     0.9010     5.8760 ca         1 PB4      -0.153000
     16 C21         -2.4100    -0.4210     6.0760 ca         1 PB4       0.174000
     17 C22         -0.2130    -1.1290     5.5650 ca         1 PB4      -0.059000
     18 N1           1.8060     2.0380     1.1170 nb         1 PB4      -0.177500
     19 C5           1.8770     2.5740    -0.0890 ca         1 PB4       0.124900
     20 N2           1.8620     1.9060    -1.2300 nb         1 PB4      -0.177500
     21 N3           1.6920     0.9430     3.5690 ns         1 PB4      -0.482900
     22 N4           1.8590     0.5440    -3.5450 ns         1 PB4      -0.482900
     23 C6          -1.7250    -1.1890    -5.6590 ca         1 PB4      -0.113800
     24 C17         -1.3830     1.0010    -6.6640 ca         1 PB4      -0.153000
     25 C18         -0.0810     1.0210    -6.1840 ca         1 PB4      -0.078000
     26 C4          -1.5120    -1.4680     5.9330 ca         1 PB4      -0.113800
     27 O1           1.6400    -1.4160    -2.4220 o          1 PB4      -0.589600
     28 O2           1.5270    -1.1280     2.6690 o          1 PB4      -0.589600
     29 F1          -3.6760    -0.7120     6.4300 f          1 PB4      -0.180500
     30 F2          -3.4350    -0.1150    -6.8540 f          1 PB4      -0.180500
     31 H2           1.6140    -1.1540     0.1140 ha         1 PB4       0.183000
     32 H71         -2.2810    -3.0450     7.1850 hc         1 PB4       0.048867
     33 H72         -2.7390    -3.1860     5.4950 hc         1 PB4       0.048867
     34 H73         -1.0960    -3.5660     5.9950 hc         1 PB4       0.048867
     35 H81         -2.9870    -2.8120    -6.3110 hc         1 PB4       0.048867
     36 H82         -2.0840    -3.1300    -4.8340 hc         1 PB4       0.048867
     37 H83         -3.4900    -2.0730    -4.8000 hc         1 PB4       0.048867
     38 H101         1.9730     1.3430     5.5580 h1         1 PB4       0.062450
     39 H102         2.2470    -0.3330     5.1190 h1         1 PB4       0.062450
     40 H131         2.2580    -0.9980    -4.8720 h1         1 PB4       0.062450
     41 H132         2.4510     0.6240    -5.5130 h1         1 PB4       0.062450
     42 H15         -0.0350    -1.9730    -4.6210 ha         1 PB4       0.129500
     43 H19         -0.4790     2.2360     5.3620 ha         1 PB4       0.112500
     44 H20         -2.8050     1.6810     6.0050 ha         1 PB4       0.131500
     45 H22          0.5150    -1.9220     5.4410 ha         1 PB4       0.129500
     46 H5           1.9520     3.6530    -0.1490 h5         1 PB4       0.056100
     47 HN3          1.7590     1.9270     3.3560 hn         1 PB4       0.343000
     48 HN4          1.8970     1.5460    -3.4320 hn         1 PB4       0.343000
     49 H17         -1.7760     1.8260    -7.2440 ha         1 PB4       0.131500
     50 H18          0.5500     1.8760    -6.3960 ha         1 PB4       0.112500
@<TRIPOS>BOND
     1     1     2 ar  
     2     1     9 1   
     3     1    20 ar  
     4     2     3 ar  
     5     2    31 1   
     6     3     6 1   
     7     3    18 ar  
     8     4    26 1   
     9     4    32 1   
    10     4    33 1   
    11     4    34 1   
    12     5    23 1   
    13     5    35 1   
    14     5    36 1   
    15     5    37 1   
    16     6    21 1   
    17     6    28 2   
    18     7     8 1   
    19     7    21 1   
    20     7    38 1   
    21     7    39 1   
    22     8    14 ar  
    23     8    17 ar  
    24     9    22 1   
    25     9    27 2   
    26    10    11 1   
    27    10    22 1   
    28    10    40 1   
    29    10    41 1   
    30    11    12 ar  
    31    11    25 ar  
    32    12    23 ar  
    33    12    42 1   
    34    13    23 ar  
    35    13    24 ar  
    36    13    30 1   
    37    14    15 ar  
    38    14    43 1   
    39    15    16 ar  
    40    15    44 1   
    41    16    26 ar  
    42    16    29 1   
    43    17    26 ar  
    44    17    45 1   
    45    18    19 ar  
    46    19    20 ar  
    47    19    46 1   
    48    21    47 1   
    49    22    48 1   
    50    24    25 ar  
    51    24    49 1   
    52    25    50 1   
@<TRIPOS>SUBSTRUCTURE
     1 PB4         1 TEMP              0 ****  ****    0 ROOT
