@<TRIPOS>MOLECULE
PB5
   42    44     1     0     0
SMALL
No Charge or Current Charge


@<TRIPOS>ATOM
      1 C1          -1.2050    -0.7480    -0.0110 ca         1 PB5       0.053000
      2 C2           0.0110    -1.4680    -0.0070 ca         1 PB5      -0.103000
      3 C3           1.2250    -0.7470    -0.0040 ca         1 PB5       0.053000
      4 N6          -1.1960     0.6070    -0.0130 nb         1 PB5      -0.176000
      5 C9           2.5580    -1.4730     0.0010 c          1 PB5       0.501100
      6 C11          5.0540    -1.1840     0.0120 c3         1 PB5       0.157800
      7 C12          6.0560    -0.0450     0.0050 ca         1 PB5      -0.170300
      8 C15         -2.5360    -1.4760    -0.0140 c          1 PB5       0.501100
      9 C21         -6.7660     0.2520     1.1440 ca         1 PB5       0.351900
     10 C24         -7.2040     1.7530    -1.1150 ca         1 PB5      -0.166000
     11 C30          6.2790     0.7260     1.1610 ca         1 PB5      -0.055500
     12 C31          7.2200     1.7660     1.0940 ca         1 PB5      -0.166000
     13 C32          7.9020     1.9990    -0.1120 ca         1 PB5       0.344900
     14 C34          6.7860     0.2590    -1.1610 ca         1 PB5       0.351900
     15 N4           1.2150     0.6090    -0.0050 nb         1 PB5      -0.176000
     16 C5           0.0090     1.2130    -0.0100 ca         1 PB5       0.125900
     17 N10          3.6840    -0.6770     0.0030 ns         1 PB5      -0.486400
     18 N16         -3.6640    -0.6830    -0.0180 ns         1 PB5      -0.486400
     19 C17         -5.0330    -1.1910    -0.0260 c3         1 PB5       0.157800
     20 C18         -6.0370    -0.0530    -0.0220 ca         1 PB5      -0.170300
     21 N22         -7.6760     1.2530     1.2080 nb         1 PB5      -0.665000
     22 C23         -7.8850     1.9880     0.0910 ca         1 PB5       0.344900
     23 C25         -6.2610     0.7140    -1.1790 ca         1 PB5      -0.055500
     24 N33          7.6940     1.2610    -1.2270 nb         1 PB5      -0.665000
     25 O41         -2.6210    -2.6980    -0.0140 o          1 PB5      -0.589100
     26 O42          2.6440    -2.6940     0.0030 o          1 PB5      -0.589100
     27 H2           0.0110    -2.5560    -0.0060 ha         1 PB5       0.184000
     28 H111         5.2010    -1.7990     0.9100 h1         1 PB5       0.062450
     29 H112         5.2030    -1.8250    -0.8670 h1         1 PB5       0.062450
     30 H21         -6.6190    -0.3210     2.0590 h4         1 PB5       0.021600
     31 H24         -7.4090     2.3720    -1.9840 ha         1 PB5       0.127000
     32 H30          5.7380     0.5240     2.0840 ha         1 PB5       0.125000
     33 H31          7.4240     2.3870     1.9620 ha         1 PB5       0.127000
     34 H32          8.6360     2.7990    -0.1880 h4         1 PB5       0.022100
     35 H34          6.6390    -0.3170    -2.0750 h4         1 PB5       0.021600
     36 H5           0.0080     2.3020    -0.0110 h5         1 PB5       0.058100
     37 H10          3.5370     0.3260     0.0020 hn         1 PB5       0.347000
     38 H16         -3.5180     0.3210    -0.0200 hn         1 PB5       0.347000
     39 H171        -5.1790    -1.8080    -0.9230 h1         1 PB5       0.062450
     40 H172        -5.1810    -1.8310     0.8540 h1         1 PB5       0.062450
     41 H23         -8.6210     2.7880     0.1660 h4         1 PB5       0.022100
     42 H25         -5.7200     0.5110    -2.1020 ha         1 PB5       0.125000
@<TRIPOS>BOND
     1     1     2 ar  
     2     1     4 ar  
     3     1     8 1   
     4     2     3 ar  
     5     2    27 1   
     6     3     5 1   
     7     3    15 ar  
     8     4    16 ar  
     9     5    17 1   
    10     5    26 2   
    11     6     7 1   
    12     6    17 1   
    13     6    28 1   
    14     6    29 1   
    15     7    11 ar  
    16     7    14 ar  
    17     8    18 1   
    18     8    25 2   
    19     9    20 ar  
    20     9    21 ar  
    21     9    30 1   
    22    10    22 ar  
    23    10    23 ar  
    24    10    31 1   
    25    11    12 ar  
    26    11    32 1   
    27    12    13 ar  
    28    12    33 1   
    29    13    24 ar  
    30    13    34 1   
    31    14    24 ar  
    32    14    35 1   
    33    15    16 ar  
    34    16    36 1   
    35    17    37 1   
    36    18    19 1   
    37    18    38 1   
    38    19    20 1   
    39    19    39 1   
    40    19    40 1   
    41    20    23 ar  
    42    21    22 ar  
    43    22    41 1   
    44    23    42 1   
@<TRIPOS>SUBSTRUCTURE
     1 PB5         1 TEMP              0 ****  ****    0 ROOT
