@<TRIPOS>MOLECULE
PB5
   42    44     1     0     0
SMALL
bcc


@<TRIPOS>ATOM
      1 C1          -1.1470    -0.7200     0.0170 ca         1 PB5       0.381300
      2 C2           0.0240    -1.4560    -0.0400 ca         1 PB5      -0.251600
      3 C3           1.1910    -0.7270    -0.1950 ca         1 PB5       0.381300
      4 N6          -1.1530     0.6030    -0.0750 nb         1 PB5      -0.702000
      5 C9           2.5180    -1.4400    -0.2570 c          1 PB5       0.568100
      6 C11          4.9320    -1.1270    -0.4680 c3         1 PB5       0.157800
      7 C12          5.8970    -0.0300    -0.1280 ca         1 PB5      -0.235600
      8 C15         -2.4680    -1.4250     0.1950 c          1 PB5       0.568100
      9 C21         -6.5260     0.6130     1.2190 ca         1 PB5       0.417200
     10 C24         -7.0600     1.4380    -1.3030 ca         1 PB5      -0.249300
     11 C30          6.0270     0.4430     1.1740 ca         1 PB5      -0.073500
     12 C31          6.9220     1.4660     1.4320 ca         1 PB5      -0.249300
     13 C32          7.6590     1.9830     0.3750 ca         1 PB5       0.410200
     14 C34          6.6840     0.5630    -1.1080 ca         1 PB5       0.417200
     15 N4           1.1880     0.5960    -0.2890 nb         1 PB5      -0.702000
     16 C5           0.0150     1.2030    -0.2260 ca         1 PB5       0.651900
     17 N10          3.5720    -0.6350    -0.3940 ns         1 PB5      -0.553400
     18 N16         -3.5260    -0.6170     0.2470 ns         1 PB5      -0.553400
     19 C17         -4.8750    -1.1150     0.4310 c3         1 PB5       0.157800
     20 C18         -5.8670    -0.0200     0.1720 ca         1 PB5      -0.235600
     21 N22         -7.4030     1.5960     1.0550 nb         1 PB5      -0.665000
     22 C23         -7.6610     1.9960    -0.1830 ca         1 PB5       0.410200
     23 C25         -6.1480     0.4120    -1.1200 ca         1 PB5      -0.073500
     24 N33          7.5470     1.5440    -0.8720 nb         1 PB5      -0.665000
     25 O41         -2.5170    -2.6420     0.2790 o          1 PB5      -0.589100
     26 O42          2.5730    -2.6570    -0.1770 o          1 PB5      -0.589100
     27 H2           0.0280    -2.5320     0.0340 ha         1 PB5       0.202000
     28 H111         5.0450    -1.9560     0.2330 h1         1 PB5       0.062450
     29 H112         5.1450    -1.5200    -1.4660 h1         1 PB5       0.062450
     30 H21         -6.3330     0.3030     2.2410 h4         1 PB5       0.021600
     31 H24         -7.3050     1.7990    -2.2920 ha         1 PB5       0.145000
     32 H30          5.4360     0.0150     1.9740 ha         1 PB5       0.143000
     33 H31          7.0530     1.8590     2.4310 ha         1 PB5       0.145000
     34 H32          8.3700     2.7840     0.5450 h4         1 PB5       0.022100
     35 H34          6.6110     0.2200    -2.1360 h4         1 PB5       0.021600
     36 H5           0.0120     2.2830    -0.3040 h5         1 PB5       0.058100
     37 H10          3.4010     0.3560    -0.4910 hn         1 PB5       0.347000
     38 H16         -3.3680     0.3800     0.1940 hn         1 PB5       0.347000
     39 H171        -5.0470    -1.9450    -0.2560 h1         1 PB5       0.062450
     40 H172        -5.0010    -1.5050     1.4440 h1         1 PB5       0.062450
     41 H23         -8.3800     2.8000    -0.2940 h4         1 PB5       0.022100
     42 H25         -5.6630    -0.0510    -1.9710 ha         1 PB5       0.143000
@<TRIPOS>BOND
     1     1     2 ar  
     2     1     4 ar  
     3     1     8 1   
     4     2     3 ar  
     5     2    27 1   
     6     3     5 1   
     7     3    15 ar  
     8     4    16 ar  
     9     5    17 1   
    10     5    26 2   
    11     6     7 1   
    12     6    17 1   
    13     6    28 1   
    14     6    29 1   
    15     7    11 ar  
    16     7    14 ar  
    17     8    18 1   
    18     8    25 2   
    19     9    20 ar  
    20     9    21 ar  
    21     9    30 1   
    22    10    22 ar  
    23    10    23 ar  
    24    10    31 1   
    25    11    12 ar  
    26    11    32 1   
    27    12    13 ar  
    28    12    33 1   
    29    13    24 ar  
    30    13    34 1   
    31    14    24 ar  
    32    14    35 1   
    33    15    16 ar  
    34    16    36 1   
    35    17    37 1   
    36    18    19 1   
    37    18    38 1   
    38    19    20 1   
    39    19    39 1   
    40    19    40 1   
    41    20    23 ar  
    42    21    22 ar  
    43    22    41 1   
    44    23    42 1   
@<TRIPOS>SUBSTRUCTURE
     1 PB5         1 TEMP              0 ****  ****    0 ROOT
