@<TRIPOS>MOLECULE
PB6
   34    34     1     0     0
SMALL
No Charge or Current Charge


@<TRIPOS>ATOM
      1 C7          -0.9670    -1.0650    -0.6070 c3         1 PB6       0.075600
      2 C8          -1.9920    -0.2840     0.2580 c3         1 PB6      -0.616700
      3 P9          -1.5210     1.4300     0.5250 p5         1 PB6       1.308000
      4 O10         -0.4640     1.3900     1.5750 o          1 PB6      -0.904500
      5 O11         -0.9010     1.9680    -0.7200 o          1 PB6      -0.904500
      6 N12          0.3670    -1.2440     0.0060 na         1 PB6       0.088300
      7 O12         -2.6350     2.3010     0.9940 o          1 PB6      -0.904500
      8 C13          0.6010    -2.3230     0.8610 ca         1 PB6      -0.080000
      9 C14          1.9090    -2.6610     1.2520 ca         1 PB6      -0.222000
     10 P14         -3.6120    -0.2760    -0.5110 p5         1 PB6       1.308000
     11 C15          2.9970    -1.8950     0.8010 ca         1 PB6      -0.076000
     12 O15         -3.8570    -1.6750    -0.9680 o          1 PB6      -0.904500
     13 C16          2.7750    -0.7780    -0.0340 ca         1 PB6      -0.123800
     14 O16         -4.6570     0.0500     0.5020 o          1 PB6      -0.904500
     15 C17          1.4480    -0.4580    -0.4030 ca         1 PB6       0.065700
     16 O17         -3.6790     0.6370    -1.6870 o          1 PB6      -0.904500
     17 C18          3.8960     0.0850    -0.5170 ce         1 PB6      -0.055200
     18 C19          5.2050    -0.2570    -0.5240 c2         1 PB6      -0.325200
     19 C20          6.3350     0.6190    -1.0200 c3         1 PB6      -0.019200
     20 C21          6.8110     1.6180     0.0500 c3         1 PB6      -0.082100
     21 H7          -1.3570    -2.0690    -0.8180 h1         1 PB6       0.069200
     22 H7A         -0.8490    -0.5680    -1.5790 h1         1 PB6       0.069200
     23 H8          -2.0990    -0.7660     1.2330 hc         1 PB6       0.032700
     24 H13         -0.2630    -2.8930     1.2020 h4         1 PB6       0.152000
     25 H14          2.0770    -3.5100     1.9100 ha         1 PB6       0.088000
     26 H15          3.9990    -2.1620     1.1230 ha         1 PB6       0.079000
     27 H17          1.2220     0.4070    -1.0260 h4         1 PB6       0.232000
     28 H18          3.5930     1.0620    -0.9020 ha         1 PB6       0.205000
     29 H19          5.5340    -1.2320    -0.1640 ha         1 PB6       0.144000
     30 H20          7.1850    -0.0050    -1.3250 hc         1 PB6       0.027700
     31 H20A         6.0210     1.1740    -1.9130 hc         1 PB6       0.027700
     32 H21          7.6330     2.2310    -0.3380 hc         1 PB6       0.018700
     33 H21A         5.9930     2.2860     0.3460 hc         1 PB6       0.018700
     34 H21B         7.1670     1.0890     0.9410 hc         1 PB6       0.018700
@<TRIPOS>BOND
     1     1     2 1   
     2     1     6 1   
     3     1    21 1   
     4     1    22 1   
     5     2     3 1   
     6     2    10 1   
     7     2    23 1   
     8     3     4 1   
     9     3     5 1   
    10     3     7 1   
    11     6     8 1   
    12     6    15 2   
    13     8     9 ar  
    14     8    24 1   
    15     9    11 ar  
    16     9    25 1   
    17    10    12 1   
    18    10    14 1   
    19    10    16 1   
    20    11    13 ar  
    21    11    26 1   
    22    13    15 ar  
    23    13    17 1   
    24    15    27 1   
    25    17    18 2   
    26    17    28 1   
    27    18    19 1   
    28    18    29 1   
    29    19    20 1   
    30    19    30 1   
    31    19    31 1   
    32    20    32 1   
    33    20    33 1   
    34    20    34 1   
@<TRIPOS>SUBSTRUCTURE
     1 PB6         1 TEMP              0 ****  ****    0 ROOT
