@<TRIPOS>MOLECULE
PB6
   34    34     1     0     0
SMALL
bcc


@<TRIPOS>ATOM
      1 C7          -1.0200    -1.2110    -0.6390 c3         1 PB6       0.046300
      2 C8          -1.8190    -0.2320     0.2010 c3         1 PB6      -0.301100
      3 P9          -0.9950     1.4430     0.2000 p5         1 PB6       1.150200
      4 O10          0.2710     1.2350     1.0660 o          1 PB6      -0.904500
      5 O11         -0.6290     1.7260    -1.2700 o          1 PB6      -0.904500
      6 N12          0.3560    -1.4340    -0.1370 na         1 PB6       0.066900
      7 O12         -1.9670     2.4520     0.8120 o          1 PB6      -0.904500
      8 C13          0.5830    -2.4380     0.7210 ca         1 PB6      -0.047300
      9 C14          1.8320    -2.6280     1.2550 ca         1 PB6      -0.240000
     10 P14         -3.6030    -0.3210    -0.3720 p5         1 PB6       1.150200
     11 C15          2.8640    -1.7720     0.8880 ca         1 PB6      -0.094000
     12 O15         -3.8700    -1.8350    -0.5230 o          1 PB6      -0.904500
     13 C16          2.6190    -0.7300     0.0040 ca         1 PB6      -0.123800
     14 O16         -4.4430     0.3080     0.7450 o          1 PB6      -0.904500
     15 C17          1.3150    -0.5660    -0.4570 ca         1 PB6       0.047700
     16 O17         -3.6750     0.4180    -1.7140 o          1 PB6      -0.904500
     17 C18          3.6340     0.2160    -0.4590 ce         1 PB6      -0.005200
     18 C19          4.9510     0.0080    -0.4380 c2         1 PB6      -0.275200
     19 C20          5.9740     0.9820    -0.9200 c3         1 PB6      -0.019200
     20 C21          6.9460     1.3880     0.1870 c3         1 PB6      -0.082100
     21 H7          -1.5010    -2.1870    -0.6690 h1         1 PB6       0.069200
     22 H7A         -0.9270    -0.8430    -1.6590 h1         1 PB6       0.069200
     23 H8          -1.8190    -0.6050     1.2360 hc         1 PB6       0.032700
     24 H13         -0.2570    -3.0750     0.9550 h4         1 PB6       0.170000
     25 H14          1.9970    -3.4430     1.9440 ha         1 PB6       0.106000
     26 H15          3.8510    -1.9200     1.3060 ha         1 PB6       0.097000
     27 H17          1.0340     0.2130    -1.1540 h4         1 PB6       0.250000
     28 H18          3.2530     1.1430    -0.8770 ha         1 PB6       0.155000
     29 H19          5.3430    -0.9290    -0.0480 ha         1 PB6       0.094000
     30 H20          6.5420     0.5220    -1.7350 hc         1 PB6       0.027700
     31 H20A         5.4850     1.8660    -1.3350 hc         1 PB6       0.027700
     32 H21          7.7220     2.0480    -0.2020 hc         1 PB6       0.018700
     33 H21A         6.4280     1.9130     0.9900 hc         1 PB6       0.018700
     34 H21B         7.4370     0.5160     0.6200 hc         1 PB6       0.018700
@<TRIPOS>BOND
     1     1     2 1   
     2     1     6 1   
     3     1    21 1   
     4     1    22 1   
     5     2     3 1   
     6     2    10 1   
     7     2    23 1   
     8     3     4 1   
     9     3     5 1   
    10     3     7 1   
    11     6     8 1   
    12     6    15 2   
    13     8     9 ar  
    14     8    24 1   
    15     9    11 ar  
    16     9    25 1   
    17    10    12 1   
    18    10    14 1   
    19    10    16 1   
    20    11    13 ar  
    21    11    26 1   
    22    13    15 ar  
    23    13    17 1   
    24    15    27 1   
    25    17    18 2   
    26    17    28 1   
    27    18    19 1   
    28    18    29 1   
    29    19    20 1   
    30    19    30 1   
    31    19    31 1   
    32    20    32 1   
    33    20    33 1   
    34    20    34 1   
@<TRIPOS>SUBSTRUCTURE
     1 PB6         1 TEMP              0 ****  ****    0 ROOT
