@<TRIPOS>MOLECULE
PB7
   97   100     1     0     0
SMALL
No Charge or Current Charge


@<TRIPOS>ATOM
      1 C1           1.8660    -6.0710    -1.8050 ca         1 PB7      -0.111000
      2 C2           1.5010     3.8980    -4.6790 ca         1 PB7      -0.111000
      3 C3           1.9060    -5.2520    -2.9470 ca         1 PB7      -0.110000
      4 C4           2.2400    -5.5500    -0.5550 ca         1 PB7      -0.110000
      5 C5           1.1370     2.5540    -4.8720 ca         1 PB7      -0.108000
      6 C6           0.7980     4.6890    -3.7550 ca         1 PB7      -0.108000
      7 C7          -8.3860    -0.3470     3.2350 ca         1 PB7      -0.075000
      8 C8           2.3200    -3.9130    -2.8380 ca         1 PB7      -0.105000
      9 C9           2.6540    -4.2120    -0.4460 ca         1 PB7      -0.105000
     10 C10          0.0700     2.0040    -4.1410 ca         1 PB7      -0.100500
     11 C11         -0.2670     4.1380    -3.0230 ca         1 PB7      -0.100500
     12 C12         -7.4760     0.5800     2.7000 ca         1 PB7      -0.148000
     13 C13         -8.9520    -1.3360     2.4120 ca         1 PB7      -0.197000
     14 C14         -7.6940    -0.4680     0.5180 ca         1 PB7      -0.124000
     15 C15          2.6980    -3.3870    -1.5870 ca         1 PB7      -0.080300
     16 C16         -0.6380     2.7920    -3.2110 ca         1 PB7      -0.078300
     17 C17         -7.1240     0.5260     1.3370 ca         1 PB7      -0.057300
     18 C18         -8.6040    -1.3990     1.0450 ca         1 PB7       0.137100
     19 C19          3.4120     0.6420     1.2870 c          1 PB7       0.581000
     20 C21          1.1610     1.4800    -0.7060 c          1 PB7       0.581100
     21 C22          5.5410     1.6620     0.7120 c5         1 PB7      -0.105400
     22 C23          4.8550     1.1490    -0.5950 c5         1 PB7       0.101000
     23 C24          4.8840     0.7390     1.8000 c5         1 PB7       0.056400
     24 C25          4.4650     3.1500     4.7860 c3         1 PB7      -0.177100
     25 C26          5.2280    -3.1700     2.6880 c3         1 PB7      -0.092100
     26 C29          3.1430    -1.9370    -1.4640 c3         1 PB7      -0.028100
     27 C30         -1.7760     2.1870    -2.3940 c3         1 PB7      -0.053100
     28 C31         -6.1390     1.5300     0.7520 c3         1 PB7       0.205100
     29 C33          1.9620    -0.9990    -1.1200 c3         1 PB7      -0.080400
     30 C34         -3.7440     1.8380     0.1180 c3         1 PB7       0.125800
     31 C35          2.3500     0.5040    -0.9900 c3         1 PB7       0.051700
     32 C36          5.5460    -0.6930     1.8890 c3         1 PB7      -0.063700
     33 C37         -1.3440     1.7960    -0.9520 c3         1 PB7       0.082700
     34 C38         -2.4280     1.0470    -0.1170 c3         1 PB7       0.158300
     35 N39          3.5330     0.6990    -0.1080 n          1 PB7      -0.401800
     36 N41         -0.1050     1.0050    -0.9980 ns         1 PB7      -0.504900
     37 O43          2.3660     0.4760     1.9070 o          1 PB7      -0.526000
     38 O45          1.3310     2.6130    -0.2750 o          1 PB7      -0.553100
     39 O46         -2.7890    -0.2050    -0.7200 oh         1 PB7      -0.650000
     40 O47         -9.1260    -2.3470     0.1880 os         1 PB7      -0.341100
     41 H1           1.5460    -7.1070    -1.8900 ha         1 PB7       0.111000
     42 H2           2.3270     4.3240    -5.2440 ha         1 PB7       0.111000
     43 H3           1.6150    -5.6540    -3.9150 ha         1 PB7       0.111000
     44 H4           2.2090    -6.1830     0.3290 ha         1 PB7       0.111000
     45 H5           1.6810     1.9400    -5.5850 ha         1 PB7       0.112000
     46 H6           1.0810     5.7280    -3.6040 ha         1 PB7       0.112000
     47 H8           2.3460    -3.2850    -3.7250 ha         1 PB7       0.112000
     48 H9           2.9400    -3.8150     0.5260 ha         1 PB7       0.112000
     49 H10         -0.2010     0.9610    -4.2920 ha         1 PB7       0.109000
     50 H11         -0.8010     4.7550    -2.3040 ha         1 PB7       0.109000
     51 H12         -7.0430     1.3410     3.3450 ha         1 PB7       0.111000
     52 H13         -9.6540    -2.0400     2.8500 ha         1 PB7       0.116000
     53 H14         -7.4250    -0.5210    -0.5340 ha         1 PB7       0.145000
     54 H22          6.6310     1.5990     0.6590 hc         1 PB7       0.072200
     55 H22A         5.3070     2.7220     0.8470 hc         1 PB7       0.072200
     56 H23          4.7700     1.9400    -1.3510 h1         1 PB7       0.045700
     57 H23A         5.4060     0.3080    -1.0370 h1         1 PB7       0.045700
     58 H25          5.5370     3.2570     4.9840 hc         1 PB7       0.058033
     59 H25A         3.9250     4.0850     4.9710 hc         1 PB7       0.058033
     60 H25B         4.1730     2.3680     5.4970 hc         1 PB7       0.058033
     61 H26          6.1510    -3.2430     3.2750 hc         1 PB7       0.033367
     62 H26A         4.4940    -3.8500     3.1370 hc         1 PB7       0.033367
     63 H26B         5.4320    -3.5160     1.6680 hc         1 PB7       0.033367
     64 H28        -10.3500    -3.9950    -0.2080 h1         1 PB7       0.039367
     65 H28A        -9.6270    -3.9740     1.4140 h1         1 PB7       0.039367
     66 H28B       -10.9770    -2.8760     1.0200 h1         1 PB7       0.039367
     67 H29          3.9150    -1.8610    -0.6900 hc         1 PB7       0.045200
     68 H29A         3.6110    -1.6010    -2.3980 hc         1 PB7       0.045200
     69 H30         -2.6050     2.9030    -2.3470 hc         1 PB7       0.047700
     70 H30A        -2.1700     1.3010    -2.9070 hc         1 PB7       0.047700
     71 H31         -6.4940     1.8440    -0.2390 h1         1 PB7       0.036700
     72 H31A        -6.1130     2.4250     1.3890 h1         1 PB7       0.036700
     73 H33          1.2050    -1.1150    -1.9050 hc         1 PB7       0.069200
     74 H33A         1.5060    -1.3350    -0.1810 hc         1 PB7       0.069200
     75 H34         -3.5530     2.6700     0.8100 h1         1 PB7       0.035700
     76 H34A        -4.0830     2.2680    -0.8320 h1         1 PB7       0.035700
     77 H35          2.6760     0.7980    -1.9960 h1         1 PB7       0.051700
     78 H36          5.6250    -1.0870     0.8690 hc         1 PB7       0.057700
     79 H37         -1.1320     2.7330    -0.4170 h1         1 PB7       0.089700
     80 H38         -1.9950     0.8540     0.8750 h1         1 PB7       0.084700
     81 HN41        -0.1770     0.0500    -1.3250 hn         1 PB7       0.315500
     82 HO46        -3.7400    -0.2880    -0.4630 ho         1 PB7       0.443000
     83 N40          4.9510     1.4450     3.1160 ns         1 PB7      -0.494900
     84 C27          6.9990    -0.6540     2.4450 c3         1 PB7      -0.090100
     85 C20          4.2700     2.6280     3.3680 c          1 PB7       0.599100
     86 C32          4.6800    -1.7260     2.6780 c3         1 PB7      -0.082400
     87 N42         -4.7950     0.9330     0.6510 n7         1 PB7      -0.857400
     88 O44          3.5770     3.2240     2.5580 o          1 PB7      -0.579100
     89 H7          -8.6530    -0.2980     4.2890 ha         1 PB7       0.110000
     90 C28        -10.0650    -3.3450     0.6290 c3         1 PB7       0.148900
     91 H27          7.0060    -0.4300     3.5190 hc         1 PB7       0.035033
     92 H27A         7.5020    -1.6170     2.2980 hc         1 PB7       0.035033
     93 H27B         7.6120     0.0980     1.9390 hc         1 PB7       0.035033
     94 H32          3.6780    -1.7780     2.2380 hc         1 PB7       0.052200
     95 H32A         4.5500    -1.3860     3.7130 hc         1 PB7       0.052200
     96 HN40         5.4830     1.0760     3.8940 hn         1 PB7       0.316500
     97 HN42        -4.5240     0.6340     1.5970 hn         1 PB7       0.420000
@<TRIPOS>BOND
     1     1     3 ar  
     2     1     4 ar  
     3     1    41 1   
     4     2     5 ar  
     5     2     6 ar  
     6     2    42 1   
     7     3     8 ar  
     8     3    43 1   
     9     4     9 ar  
    10     4    44 1   
    11     5    10 ar  
    12     5    45 1   
    13     6    11 ar  
    14     6    46 1   
    15     7    12 ar  
    16     7    13 ar  
    17     7    89 1   
    18     8    15 ar  
    19     8    47 1   
    20     9    15 ar  
    21     9    48 1   
    22    10    16 ar  
    23    10    49 1   
    24    11    16 ar  
    25    11    50 1   
    26    12    17 ar  
    27    12    51 1   
    28    13    18 ar  
    29    13    52 1   
    30    14    17 ar  
    31    14    18 ar  
    32    14    53 1   
    33    15    26 1   
    34    16    27 1   
    35    17    28 1   
    36    18    40 1   
    37    19    23 1   
    38    19    35 1   
    39    19    37 2   
    40    20    31 1   
    41    20    36 1   
    42    20    38 2   
    43    21    22 1   
    44    21    23 1   
    45    21    54 1   
    46    21    55 1   
    47    22    35 1   
    48    22    56 1   
    49    22    57 1   
    50    23    32 1   
    51    23    83 1   
    52    24    58 1   
    53    24    59 1   
    54    24    60 1   
    55    24    85 1   
    56    25    61 1   
    57    25    62 1   
    58    25    63 1   
    59    25    86 1   
    60    26    29 1   
    61    26    67 1   
    62    26    68 1   
    63    27    33 1   
    64    27    69 1   
    65    27    70 1   
    66    28    71 1   
    67    28    72 1   
    68    28    87 1   
    69    29    31 1   
    70    29    73 1   
    71    29    74 1   
    72    30    34 1   
    73    30    75 1   
    74    30    76 1   
    75    30    87 1   
    76    31    35 1   
    77    31    77 1   
    78    32    78 1   
    79    32    84 1   
    80    32    86 1   
    81    33    34 1   
    82    33    36 1   
    83    33    79 1   
    84    34    39 1   
    85    34    80 1   
    86    36    81 1   
    87    39    82 1   
    88    40    90 1   
    89    64    90 1   
    90    65    90 1   
    91    66    90 1   
    92    83    85 1   
    93    83    96 1   
    94    84    91 1   
    95    84    92 1   
    96    84    93 1   
    97    85    88 2   
    98    86    94 1   
    99    86    95 1   
   100    87    97 1   
@<TRIPOS>SUBSTRUCTURE
     1 PB7         1 TEMP              0 ****  ****    0 ROOT
