@<TRIPOS>MOLECULE
PB7
   97   100     1     0     0
SMALL
abcg2


@<TRIPOS>ATOM
      1 C1           1.9780    -6.5330     0.5210 ca         1 PB7      -0.111000
      2 C2           2.0090     4.6290    -2.3600 ca         1 PB7      -0.111000
      3 C3           1.4440    -6.0610    -0.6710 ca         1 PB7      -0.110000
      4 C4           2.7600    -5.6900     1.3020 ca         1 PB7      -0.110000
      5 C5           1.7060     3.5560    -3.1860 ca         1 PB7      -0.108000
      6 C6           1.0990     5.0170    -1.3830 ca         1 PB7      -0.108000
      7 C7          -9.7470     0.3840     1.7700 ca         1 PB7      -0.075000
      8 C8           1.6920    -4.7570    -1.0790 ca         1 PB7      -0.105000
      9 C9           3.0020    -4.3870     0.8900 ca         1 PB7      -0.105000
     10 C10          0.5060     2.8730    -3.0310 ca         1 PB7      -0.100500
     11 C11         -0.0990     4.3330    -1.2360 ca         1 PB7      -0.100500
     12 C12         -8.6190     1.1400     1.5040 ca         1 PB7      -0.148000
     13 C13         -9.9180    -0.8750     1.2050 ca         1 PB7      -0.197000
     14 C14         -7.7960    -0.6130     0.0850 ca         1 PB7      -0.124000
     15 C15          2.4740    -3.9020    -0.3050 ca         1 PB7      -0.080300
     16 C16         -0.4120     3.2520    -2.0550 ca         1 PB7      -0.078300
     17 C17         -7.6340     0.6430     0.6500 ca         1 PB7      -0.057300
     18 C18         -8.9330    -1.3760     0.3570 ca         1 PB7       0.137100
     19 C19          3.6340     0.2730     1.0860 c          1 PB7       0.581000
     20 C21          0.7020     0.8280    -0.1400 c          1 PB7       0.581100
     21 C22          4.9290     1.8890    -0.0830 c5         1 PB7      -0.105400
     22 C23          3.8910     1.2770    -1.0160 c5         1 PB7       0.101000
     23 C24          5.0650     0.8460     1.0360 c5         1 PB7       0.056400
     24 C25          5.3910     2.6370     4.3630 c3         1 PB7      -0.177100
     25 C26          6.6580    -2.7460     1.0030 c3         1 PB7      -0.092100
     26 C29          2.7070    -2.4780    -0.7210 c3         1 PB7      -0.028100
     27 C30         -1.6900     2.4870    -1.8610 c3         1 PB7      -0.053100
     28 C31         -6.4280     1.4870     0.3260 c3         1 PB7       0.205100
     29 C33          1.5890    -1.5590    -0.2270 c3         1 PB7      -0.080400
     30 C34         -4.0940     1.5040    -0.2540 c3         1 PB7       0.125800
     31 C35          1.8420    -0.0910    -0.5960 c3         1 PB7       0.051700
     32 C36          6.0370    -0.2980     0.6220 c3         1 PB7      -0.063700
     33 C37         -1.6040     1.5060    -0.6800 c3         1 PB7       0.082700
     34 C38         -2.8630     0.6460    -0.5110 c3         1 PB7       0.158300
     35 N39          3.1070     0.4230    -0.1420 n          1 PB7      -0.401800
     36 N41         -0.4480     0.6490    -0.8200 ns         1 PB7      -0.504900
     37 O43          3.1250    -0.2860     2.0380 o          1 PB7      -0.526000
     38 O45          0.8440     1.6320     0.7590 o          1 PB7      -0.553100
     39 O46         -3.0330    -0.2450    -1.5930 oh         1 PB7      -0.650000
     40 O47         -8.9930    -2.5820    -0.2420 os         1 PB7      -0.341100
     41 H1           1.7900    -7.5510     0.8380 ha         1 PB7       0.111000
     42 H2           2.9450     5.1600    -2.4750 ha         1 PB7       0.111000
     43 H3           0.8360    -6.7110    -1.2870 ha         1 PB7       0.111000
     44 H4           3.1840    -6.0480     2.2310 ha         1 PB7       0.111000
     45 H5           2.4070     3.2450    -3.9510 ha         1 PB7       0.112000
     46 H6           1.3230     5.8560    -0.7360 ha         1 PB7       0.112000
     47 H8           1.2740    -4.4010    -2.0140 ha         1 PB7       0.112000
     48 H9           3.6150    -3.7360     1.5040 ha         1 PB7       0.112000
     49 H10          0.2810     2.0370    -3.6830 ha         1 PB7       0.109000
     50 H11         -0.8010     4.6490    -0.4710 ha         1 PB7       0.109000
     51 H12         -8.4960     2.1150     1.9600 ha         1 PB7       0.111000
     52 H13        -10.8090    -1.4430     1.4390 ha         1 PB7       0.116000
     53 H14         -7.0320    -1.0130    -0.5700 ha         1 PB7       0.145000
     54 H22          5.8620     2.1120    -0.5940 hc         1 PB7       0.072200
     55 H22A         4.5420     2.8210     0.3250 hc         1 PB7       0.072200
     56 H23          3.2550     2.0360    -1.4740 h1         1 PB7       0.045700
     57 H23A         4.3450     0.6890    -1.8200 h1         1 PB7       0.045700
     58 H25          5.6700     3.6910     4.3340 hc         1 PB7       0.058033
     59 H25A         4.6580     2.5170     5.1590 hc         1 PB7       0.058033
     60 H25B         6.2770     2.0580     4.6190 hc         1 PB7       0.058033
     61 H26          7.7080    -2.6170     0.7420 hc         1 PB7       0.033367
     62 H26A         6.5980    -3.5740     1.7100 hc         1 PB7       0.033367
     63 H26B         6.1260    -3.0490     0.0980 hc         1 PB7       0.033367
     64 H28         -9.9830    -4.3000    -0.5930 h1         1 PB7       0.039367
     65 H28A       -10.2360    -3.6600     1.0400 h1         1 PB7       0.039367
     66 H28B       -11.0500    -2.9060    -0.3470 h1         1 PB7       0.039367
     67 H29          3.6700    -2.1420    -0.3300 hc         1 PB7       0.045200
     68 H29A         2.7740    -2.4060    -1.8100 hc         1 PB7       0.045200
     69 H30         -2.5150     3.1830    -1.6860 hc         1 PB7       0.047700
     70 H30A        -1.9300     1.9410    -2.7790 hc         1 PB7       0.047700
     71 H31         -6.6280     2.0450    -0.5960 h1         1 PB7       0.036700
     72 H31A        -6.3060     2.2480     1.1120 h1         1 PB7       0.036700
     73 H33          0.6500    -1.8700    -0.6910 hc         1 PB7       0.069200
     74 H33A         1.4580    -1.6680     0.8480 hc         1 PB7       0.069200
     75 H34         -3.8420     2.2610     0.5060 h1         1 PB7       0.035700
     76 H34A        -4.3550     2.0620    -1.1600 h1         1 PB7       0.035700
     77 H35          1.8780    -0.0440    -1.6900 h1         1 PB7       0.051700
     78 H36          5.6740    -0.6660    -0.3450 hc         1 PB7       0.057700
     79 H37         -1.4700     2.0790     0.2380 h1         1 PB7       0.089700
     80 H38         -2.6920     0.0150     0.3690 h1         1 PB7       0.084700
     81 HN41        -0.4590     0.0050    -1.5950 hn         1 PB7       0.315500
     82 HO46        -3.5080     0.2060    -2.2980 ho         1 PB7       0.443000
     83 N40          5.4760     1.3680     2.3120 ns         1 PB7      -0.494900
     84 C27          7.4660     0.2070     0.4050 c3         1 PB7      -0.090100
     85 C20          4.7690     2.2510     3.0440 c          1 PB7       0.599100
     86 C32          6.0410    -1.4860     1.5990 c3         1 PB7      -0.082400
     87 N42         -5.2360     0.6950     0.1120 n7         1 PB7      -0.857400
     88 O44          3.7080     2.7240     2.6670 o          1 PB7      -0.579100
     89 H7         -10.5110     0.7700     2.4330 ha         1 PB7       0.110000
     90 C28        -10.1290    -3.3910    -0.0150 c3         1 PB7       0.148900
     91 H27          7.9240     0.5610     1.3310 hc         1 PB7       0.035033
     92 H27A         8.0950    -0.5990     0.0300 hc         1 PB7       0.035033
     93 H27B         7.5260     1.0140    -0.3230 hc         1 PB7       0.035033
     94 H32          5.0260    -1.7230     1.9150 hc         1 PB7       0.052200
     95 H32A         6.5810    -1.2140     2.5110 hc         1 PB7       0.052200
     96 HN40         6.3400     1.0300     2.7030 hn         1 PB7       0.316500
     97 HN42        -5.0240     0.1820     0.9610 hn         1 PB7       0.420000
@<TRIPOS>BOND
     1     1     3 ar  
     2     1     4 ar  
     3     1    41 1   
     4     2     5 ar  
     5     2     6 ar  
     6     2    42 1   
     7     3     8 ar  
     8     3    43 1   
     9     4     9 ar  
    10     4    44 1   
    11     5    10 ar  
    12     5    45 1   
    13     6    11 ar  
    14     6    46 1   
    15     7    12 ar  
    16     7    13 ar  
    17     7    89 1   
    18     8    15 ar  
    19     8    47 1   
    20     9    15 ar  
    21     9    48 1   
    22    10    16 ar  
    23    10    49 1   
    24    11    16 ar  
    25    11    50 1   
    26    12    17 ar  
    27    12    51 1   
    28    13    18 ar  
    29    13    52 1   
    30    14    17 ar  
    31    14    18 ar  
    32    14    53 1   
    33    15    26 1   
    34    16    27 1   
    35    17    28 1   
    36    18    40 1   
    37    19    23 1   
    38    19    35 1   
    39    19    37 2   
    40    20    31 1   
    41    20    36 1   
    42    20    38 2   
    43    21    22 1   
    44    21    23 1   
    45    21    54 1   
    46    21    55 1   
    47    22    35 1   
    48    22    56 1   
    49    22    57 1   
    50    23    32 1   
    51    23    83 1   
    52    24    58 1   
    53    24    59 1   
    54    24    60 1   
    55    24    85 1   
    56    25    61 1   
    57    25    62 1   
    58    25    63 1   
    59    25    86 1   
    60    26    29 1   
    61    26    67 1   
    62    26    68 1   
    63    27    33 1   
    64    27    69 1   
    65    27    70 1   
    66    28    71 1   
    67    28    72 1   
    68    28    87 1   
    69    29    31 1   
    70    29    73 1   
    71    29    74 1   
    72    30    34 1   
    73    30    75 1   
    74    30    76 1   
    75    30    87 1   
    76    31    35 1   
    77    31    77 1   
    78    32    78 1   
    79    32    84 1   
    80    32    86 1   
    81    33    34 1   
    82    33    36 1   
    83    33    79 1   
    84    34    39 1   
    85    34    80 1   
    86    36    81 1   
    87    39    82 1   
    88    40    90 1   
    89    64    90 1   
    90    65    90 1   
    91    66    90 1   
    92    83    85 1   
    93    83    96 1   
    94    84    91 1   
    95    84    92 1   
    96    84    93 1   
    97    85    88 2   
    98    86    94 1   
    99    86    95 1   
   100    87    97 1   
@<TRIPOS>SUBSTRUCTURE
     1 PB7         1 TEMP              0 ****  ****    0 ROOT
