@<TRIPOS>MOLECULE
PB8
   94    98     1     0     0
SMALL
No Charge or Current Charge


@<TRIPOS>ATOM
      1 C1           2.4230    -7.4190    -0.5730 ca         1 PB8      -0.111000
      2 C2          -9.4970    -1.7000     1.5120 ca         1 PB8      -0.106000
      3 C3          -9.6310    -0.4140     2.0600 ca         1 PB8      -0.109000
      4 C4           1.8800    -6.8510    -1.7380 ca         1 PB8      -0.111000
      5 C5           3.0430    -6.5970     0.3840 ca         1 PB8      -0.111000
      6 C6          -8.2700    -2.1030     0.9590 ca         1 PB8      -0.109000
      7 C7          -8.5370     0.4680     2.0560 ca         1 PB8      -0.105000
      8 C8           1.9570    -5.4630    -1.9470 ca         1 PB8      -0.105000
      9 C9           3.1200    -5.2090     0.1750 ca         1 PB8      -0.105000
     10 C10         -0.4980     1.8260    -2.7710 ca         1 PB8      -0.163000
     11 C11         -1.4270     3.2260    -1.0160 ca         1 PB8      -0.163000
     12 C12          0.6190     3.8980    -2.1530 ca         1 PB8      -0.204000
     13 C13         -7.1710    -1.2220     0.9490 ca         1 PB8      -0.064300
     14 C14         -7.3030     0.0710     1.5060 ca         1 PB8      -0.079300
     15 C15          2.5790    -4.6350    -0.9920 ca         1 PB8      -0.083300
     16 C16         -1.4940     2.0590    -1.8010 ca         1 PB8      -0.015300
     17 C17          0.5540     2.7400    -2.9370 ca         1 PB8       0.200000
     18 C18         -0.3750     4.1380    -1.1950 ca         1 PB8       0.200000
     19 C19          3.2050    -0.0040     0.8910 c          1 PB8       0.555000
     20 C20          3.3240     2.9570     1.6360 c          1 PB8       0.611100
     21 C21          0.2320    -0.1290    -0.1860 c          1 PB8       0.577100
     22 C22         -5.8320    -1.6830     0.3620 c6         1 PB8      -0.022100
     23 C23         -6.1280     1.0560     1.4930 c6         1 PB8       0.205100
     24 C24          5.0120     0.5590    -0.6310 c5         1 PB8      -0.106400
     25 C25          3.7120     0.3190    -1.4580 c5         1 PB8       0.087000
     26 C26         -4.8260    -0.5220     0.1180 c6         1 PB8       0.146500
     27 C27          4.4760     0.9050     0.7990 c5         1 PB8       0.065400
     28 C28          2.8880     4.3690     1.2750 c3         1 PB8      -0.181100
     29 C29          7.3920     1.3890     3.5090 c3         1 PB8      -0.087600
     30 C30          7.5330     1.9790     1.0420 c3         1 PB8      -0.087600
     31 C31          2.6580    -3.1310    -1.2130 c3         1 PB8      -0.023100
     32 C32         -2.6070     1.0400    -1.5740 c3         1 PB8      -0.060100
     33 C33          5.4820     0.6710     1.9760 c3         1 PB8      -0.064400
     34 C34          1.4950    -2.3850    -0.5200 c3         1 PB8      -0.072400
     35 C35          1.4890    -0.8490    -0.7660 c3         1 PB8       0.048700
     36 C36         -3.3790    -1.0610    -0.2040 c3         1 PB8       0.149300
     37 C37          6.5820     1.7450     2.2390 c3         1 PB8      -0.053700
     38 C38         -2.2850     0.0330    -0.4300 c3         1 PB8       0.080700
     39 N39         -4.8210     0.3870     1.2930 n7         1 PB8      -0.853400
     40 N40          2.7920    -0.2080    -0.4360 n          1 PB8      -0.402800
     41 N42         -0.9760    -0.6000    -0.6630 ns         1 PB8      -0.505900
     42 O43          2.6910    -0.5240     1.8750 o          1 PB8      -0.493000
     43 O44          3.0820     2.4650     2.7270 o          1 PB8      -0.577100
     44 O45          0.2860     0.8120     0.5960 o          1 PB8      -0.585100
     45 O46         -3.3830    -1.9710    -1.3280 oh         1 PB8      -0.657000
     46 F47          1.5130     2.4980    -3.8560 f          1 PB8      -0.173000
     47 F48         -0.3170     5.2520    -0.4340 f          1 PB8      -0.173000
     48 H1           2.3630    -8.4930    -0.4110 ha         1 PB8       0.110000
     49 H3         -10.5810    -0.1010     2.4870 ha         1 PB8       0.114000
     50 H4           1.3990    -7.4870    -2.4790 ha         1 PB8       0.111500
     51 H5           3.4620    -7.0350     1.2870 ha         1 PB8       0.111500
     52 H6          -8.1710    -3.1020     0.5400 ha         1 PB8       0.111000
     53 H7          -8.6490     1.4640     2.4790 ha         1 PB8       0.111000
     54 H8           1.5320    -5.0320    -2.8510 ha         1 PB8       0.114500
     55 H9           3.5990    -4.5790     0.9210 ha         1 PB8       0.114500
     56 H10         -0.5270     0.9280    -3.3830 ha         1 PB8       0.134000
     57 H11         -2.1810     3.4220    -0.2580 ha         1 PB8       0.134000
     58 H12          1.4340     4.6040    -2.2850 ha         1 PB8       0.150000
     59 H22         -5.3860    -2.4130     1.0520 hc         1 PB8       0.062200
     60 H22A        -6.0100    -2.2210    -0.5790 hc         1 PB8       0.062200
     61 H23         -6.2910     1.7830     0.6830 h1         1 PB8       0.041700
     62 H23A        -6.1070     1.6160     2.4390 h1         1 PB8       0.041700
     63 H24          5.6060    -0.3620    -0.6030 hc         1 PB8       0.066700
     64 H24A         5.6450     1.3280    -1.0830 hc         1 PB8       0.066700
     65 H25          3.3190     1.2540    -1.8790 h1         1 PB8       0.042700
     66 H25A         3.8710    -0.3930    -2.2790 h1         1 PB8       0.042700
     67 H26         -5.1750     0.0510    -0.7530 h1         1 PB8       0.018700
     68 H28          3.7710     4.9520     0.9900 hc         1 PB8       0.059700
     69 H28A         2.3170     4.3390     0.3410 hc         1 PB8       0.059700
     70 H28B         2.3260     4.8570     2.0800 hc         1 PB8       0.059700
     71 H29          8.1200     2.1760     3.7400 hc         1 PB8       0.030533
     72 H29A         6.7290     1.2820     4.3760 hc         1 PB8       0.030533
     73 H29B         7.9360     0.4460     3.3730 hc         1 PB8       0.030533
     74 H30          7.9300     1.0290     0.6630 hc         1 PB8       0.030533
     75 H30A         7.0160     2.4980     0.2290 hc         1 PB8       0.030533
     76 H30B         8.3800     2.6100     1.3370 hc         1 PB8       0.030533
     77 H31          3.6160    -2.7540    -0.8320 hc         1 PB8       0.050200
     78 H31A         2.6450    -2.9030    -2.2860 hc         1 PB8       0.050200
     79 H32         -3.5390     1.5690    -1.3440 hc         1 PB8       0.054700
     80 H32A        -2.7930     0.4890    -2.5030 hc         1 PB8       0.054700
     81 H33          4.9090     0.5700     2.9050 hc         1 PB8       0.065200
     82 H33A         5.9670    -0.3040     1.8390 hc         1 PB8       0.065200
     83 H34          0.5530    -2.8170    -0.8760 hc         1 PB8       0.066700
     84 H34A         1.5350    -2.5800     0.5590 hc         1 PB8       0.066700
     85 H35          1.3700    -0.7320    -1.8510 h1         1 PB8       0.053700
     86 H36         -3.0660    -1.6150     0.6930 h1         1 PB8       0.104700
     87 H37          6.0820     2.6990     2.4470 hc         1 PB8       0.057700
     88 H38         -2.2100     0.6100     0.5010 h1         1 PB8       0.092700
     89 HN39        -4.1140     1.1190     1.1650 hn         1 PB8       0.415000
     90 HN42        -0.9480    -1.3930    -1.2930 hn         1 PB8       0.323500
     91 HO46        -3.7680    -1.4920    -2.0930 ho         1 PB8       0.441000
     92 N41          4.0110     2.3100     0.6230 ns         1 PB8      -0.508900
     93 H2         -10.3430    -2.3850     1.5160 ha         1 PB8       0.114000
     94 HN41         4.1480     2.8340    -0.2320 hn         1 PB8       0.304500
@<TRIPOS>BOND
     1     1     4 ar  
     2     1     5 ar  
     3     1    48 1   
     4     2     3 ar  
     5     2     6 ar  
     6     2    93 1   
     7     3     7 ar  
     8     3    49 1   
     9     4     8 ar  
    10     4    50 1   
    11     5     9 ar  
    12     5    51 1   
    13     6    13 ar  
    14     6    52 1   
    15     7    14 ar  
    16     7    53 1   
    17     8    15 ar  
    18     8    54 1   
    19     9    15 ar  
    20     9    55 1   
    21    10    16 ar  
    22    10    17 ar  
    23    10    56 1   
    24    11    16 ar  
    25    11    18 ar  
    26    11    57 1   
    27    12    17 ar  
    28    12    18 ar  
    29    12    58 1   
    30    13    14 ar  
    31    13    22 1   
    32    14    23 1   
    33    15    31 1   
    34    16    32 1   
    35    17    46 1   
    36    18    47 1   
    37    19    27 1   
    38    19    40 1   
    39    19    42 2   
    40    20    28 1   
    41    20    43 2   
    42    20    92 1   
    43    21    35 1   
    44    21    41 1   
    45    21    44 2   
    46    22    26 1   
    47    22    59 1   
    48    22    60 1   
    49    23    39 1   
    50    23    61 1   
    51    23    62 1   
    52    24    25 1   
    53    24    27 1   
    54    24    63 1   
    55    24    64 1   
    56    25    40 1   
    57    25    65 1   
    58    25    66 1   
    59    26    36 1   
    60    26    39 1   
    61    26    67 1   
    62    27    33 1   
    63    27    92 1   
    64    28    68 1   
    65    28    69 1   
    66    28    70 1   
    67    29    37 1   
    68    29    71 1   
    69    29    72 1   
    70    29    73 1   
    71    30    37 1   
    72    30    74 1   
    73    30    75 1   
    74    30    76 1   
    75    31    34 1   
    76    31    77 1   
    77    31    78 1   
    78    32    38 1   
    79    32    79 1   
    80    32    80 1   
    81    33    37 1   
    82    33    81 1   
    83    33    82 1   
    84    34    35 1   
    85    34    83 1   
    86    34    84 1   
    87    35    40 1   
    88    35    85 1   
    89    36    38 1   
    90    36    45 1   
    91    36    86 1   
    92    37    87 1   
    93    38    41 1   
    94    38    88 1   
    95    39    89 1   
    96    41    90 1   
    97    45    91 1   
    98    92    94 1   
@<TRIPOS>SUBSTRUCTURE
     1 PB8         1 TEMP              0 ****  ****    0 ROOT
