@<TRIPOS>MOLECULE
PB8
   94    98     1     0     0
SMALL
abcg2


@<TRIPOS>ATOM
      1 C1           2.0900    -7.4900     0.5570 ca         1 PB8      -0.111000
      2 C2          -9.1360    -1.4900     1.0600 ca         1 PB8      -0.106000
      3 C3          -9.1910    -0.3220     1.8120 ca         1 PB8      -0.109000
      4 C4           1.5770    -7.1340    -0.6840 ca         1 PB8      -0.111000
      5 C5           2.7750    -6.5460     1.3120 ca         1 PB8      -0.111000
      6 C6          -7.9470    -1.8550     0.4490 ca         1 PB8      -0.109000
      7 C7          -8.0570     0.4630     1.9400 ca         1 PB8      -0.105000
      8 C8           1.7500    -5.8420    -1.1650 ca         1 PB8      -0.105000
      9 C9           2.9440    -5.2560     0.8260 ca         1 PB8      -0.105000
     10 C10         -0.2560     2.3100    -2.6020 ca         1 PB8      -0.163000
     11 C11         -1.2480     3.3360    -0.6660 ca         1 PB8      -0.163000
     12 C12          0.7870     4.2630    -1.6060 ca         1 PB8      -0.204000
     13 C13         -6.8000    -1.0720     0.5740 ca         1 PB8      -0.064300
     14 C14         -6.8600     0.0980     1.3290 ca         1 PB8      -0.079300
     15 C15          2.4360    -4.8870    -0.4190 ca         1 PB8      -0.083300
     16 C16         -1.2610     2.3430    -1.6410 ca         1 PB8      -0.015300
     17 C17          0.7380     3.2690    -2.5630 ca         1 PB8       0.200000
     18 C18         -0.2320     4.2680    -0.6710 ca         1 PB8       0.200000
     19 C19          3.3850    -0.3850     0.5470 c          1 PB8       0.555000
     20 C20          2.9240     2.1840     2.1260 c          1 PB8       0.611100
     21 C21          0.3960    -0.2970    -0.3870 c          1 PB8       0.577100
     22 C22         -5.5190    -1.5000    -0.0920 c6         1 PB8      -0.022100
     23 C23         -5.6490     0.9810     1.4520 c6         1 PB8       0.205100
     24 C24          4.5560     0.9950    -0.9890 c5         1 PB8      -0.106400
     25 C25          3.2500     0.5160    -1.6050 c5         1 PB8       0.087000
     26 C26         -4.4990    -0.3690    -0.1650 c6         1 PB8       0.146500
     27 C27          4.3200     0.8520     0.5160 c5         1 PB8       0.065400
     28 C28          1.9490     3.3360     2.1570 c3         1 PB8      -0.181100
     29 C29          7.5490     1.4270     2.6420 c3         1 PB8      -0.087600
     30 C30          7.0260     2.5340     0.4660 c3         1 PB8      -0.087600
     31 C31          2.5890    -3.4770    -0.9140 c3         1 PB8      -0.023100
     32 C32         -2.3350     1.2960    -1.6270 c3         1 PB8      -0.060100
     33 C33          5.5680     0.6320     1.3680 c3         1 PB8      -0.064400
     34 C34          1.4430    -2.5950    -0.4220 c3         1 PB8      -0.072400
     35 C35          1.5470    -1.1550    -0.9350 c3         1 PB8       0.048700
     36 C36         -3.1270    -0.9100    -0.5780 c3         1 PB8       0.149300
     37 C37          6.4290     1.8520     1.6930 c3         1 PB8      -0.053700
     38 C38         -2.0160     0.1540    -0.6480 c3         1 PB8       0.080700
     39 N39         -4.4330     0.2510     1.1470 n7         1 PB8      -0.853400
     40 N40          2.8000    -0.4940    -0.6710 n          1 PB8      -0.402800
     41 N42         -0.7800    -0.5010    -1.0060 ns         1 PB8      -0.505900
     42 O43          3.2210    -1.1250     1.4930 o          1 PB8      -0.493000
     43 O44          3.1330     1.4810     3.1000 o          1 PB8      -0.577100
     44 O45          0.5580     0.4740     0.5410 o          1 PB8      -0.585100
     45 O46         -3.2030    -1.6260    -1.7920 oh         1 PB8      -0.657000
     46 F47          1.7050     3.2340    -3.4920 f          1 PB8      -0.173000
     47 F48         -0.2240     5.2230     0.2690 f          1 PB8      -0.173000
     48 H1           1.9610    -8.4980     0.9310 ha         1 PB8       0.110000
     49 H3         -10.1130    -0.0270     2.2980 ha         1 PB8       0.114000
     50 H4           1.0430    -7.8630    -1.2790 ha         1 PB8       0.111500
     51 H5           3.1800    -6.8140     2.2790 ha         1 PB8       0.111500
     52 H6          -7.9060    -2.7640    -0.1420 ha         1 PB8       0.111000
     53 H7          -8.0970     1.3730     2.5290 ha         1 PB8       0.111000
     54 H8           1.3480    -5.5740    -2.1350 ha         1 PB8       0.114500
     55 H9           3.4810    -4.5240     1.4190 ha         1 PB8       0.114500
     56 H10         -0.2450     1.5510    -3.3740 ha         1 PB8       0.134000
     57 H11         -2.0200     3.3840     0.0920 ha         1 PB8       0.134000
     58 H12          1.5740     5.0050    -1.5950 ha         1 PB8       0.150000
     59 H22         -5.0860    -2.3370     0.4670 hc         1 PB8       0.062200
     60 H22A        -5.7420    -1.8750    -1.0920 hc         1 PB8       0.062200
     61 H23         -5.7860     1.8530     0.7920 h1         1 PB8       0.041700
     62 H23A        -5.5780     1.3730     2.4690 h1         1 PB8       0.041700
     63 H24          5.3770     0.3440    -1.2910 hc         1 PB8       0.066700
     64 H24A         4.8070     2.0080    -1.2970 hc         1 PB8       0.066700
     65 H25          2.5160     1.3230    -1.6930 h1         1 PB8       0.042700
     66 H25A         3.3870     0.0890    -2.5990 h1         1 PB8       0.042700
     67 H26         -4.8450     0.3500    -0.9320 h1         1 PB8       0.018700
     68 H28          2.2770     4.1820     1.5540 hc         1 PB8       0.059700
     69 H28A         0.9920     2.9940     1.7600 hc         1 PB8       0.059700
     70 H28B         1.7950     3.6750     3.1790 hc         1 PB8       0.059700
     71 H29          8.1380     2.2880     2.9630 hc         1 PB8       0.030533
     72 H29A         7.1570     0.9400     3.5360 hc         1 PB8       0.030533
     73 H29B         8.2300     0.7250     2.1540 hc         1 PB8       0.030533
     74 H30          7.5490     1.8150    -0.1700 hc         1 PB8       0.030533
     75 H30A         6.2750     3.0350    -0.1440 hc         1 PB8       0.030533
     76 H30B         7.7490     3.2960     0.7620 hc         1 PB8       0.030533
     77 H31          3.5420    -3.0710    -0.5710 hc         1 PB8       0.050200
     78 H31A         2.6130    -3.4610    -2.0070 hc         1 PB8       0.050200
     79 H32         -3.2850     1.7550    -1.3460 hc         1 PB8       0.054700
     80 H32A        -2.4670     0.8920    -2.6340 hc         1 PB8       0.054700
     81 H33          5.2570     0.1760     2.3080 hc         1 PB8       0.065200
     82 H33A         6.1860    -0.1140     0.8550 hc         1 PB8       0.065200
     83 H34          0.4980    -3.0060    -0.7870 hc         1 PB8       0.066700
     84 H34A         1.3950    -2.6170     0.6660 hc         1 PB8       0.066700
     85 H35          1.4530    -1.2000    -2.0250 h1         1 PB8       0.053700
     86 H36         -2.8170    -1.6380     0.1790 h1         1 PB8       0.104700
     87 H37          5.8070     2.5820     2.2210 hc         1 PB8       0.057700
     88 H38         -1.8660     0.5720     0.3480 h1         1 PB8       0.092700
     89 HN39        -3.6590     0.8990     1.2090 hn         1 PB8       0.415000
     90 HN42        -0.8140    -1.1320    -1.7930 hn         1 PB8       0.323500
     91 HO46        -3.6790    -1.1020    -2.4450 ho         1 PB8       0.441000
     92 N41          3.5190     2.0020     0.9270 ns         1 PB8      -0.508900
     93 H2         -10.0150    -2.1110     0.9490 ha         1 PB8       0.114000
     94 HN41         3.2340     2.6300     0.1920 hn         1 PB8       0.304500
@<TRIPOS>BOND
     1     1     4 ar  
     2     1     5 ar  
     3     1    48 1   
     4     2     3 ar  
     5     2     6 ar  
     6     2    93 1   
     7     3     7 ar  
     8     3    49 1   
     9     4     8 ar  
    10     4    50 1   
    11     5     9 ar  
    12     5    51 1   
    13     6    13 ar  
    14     6    52 1   
    15     7    14 ar  
    16     7    53 1   
    17     8    15 ar  
    18     8    54 1   
    19     9    15 ar  
    20     9    55 1   
    21    10    16 ar  
    22    10    17 ar  
    23    10    56 1   
    24    11    16 ar  
    25    11    18 ar  
    26    11    57 1   
    27    12    17 ar  
    28    12    18 ar  
    29    12    58 1   
    30    13    14 ar  
    31    13    22 1   
    32    14    23 1   
    33    15    31 1   
    34    16    32 1   
    35    17    46 1   
    36    18    47 1   
    37    19    27 1   
    38    19    40 1   
    39    19    42 2   
    40    20    28 1   
    41    20    43 2   
    42    20    92 1   
    43    21    35 1   
    44    21    41 1   
    45    21    44 2   
    46    22    26 1   
    47    22    59 1   
    48    22    60 1   
    49    23    39 1   
    50    23    61 1   
    51    23    62 1   
    52    24    25 1   
    53    24    27 1   
    54    24    63 1   
    55    24    64 1   
    56    25    40 1   
    57    25    65 1   
    58    25    66 1   
    59    26    36 1   
    60    26    39 1   
    61    26    67 1   
    62    27    33 1   
    63    27    92 1   
    64    28    68 1   
    65    28    69 1   
    66    28    70 1   
    67    29    37 1   
    68    29    71 1   
    69    29    72 1   
    70    29    73 1   
    71    30    37 1   
    72    30    74 1   
    73    30    75 1   
    74    30    76 1   
    75    31    34 1   
    76    31    77 1   
    77    31    78 1   
    78    32    38 1   
    79    32    79 1   
    80    32    80 1   
    81    33    37 1   
    82    33    81 1   
    83    33    82 1   
    84    34    35 1   
    85    34    83 1   
    86    34    84 1   
    87    35    40 1   
    88    35    85 1   
    89    36    38 1   
    90    36    45 1   
    91    36    86 1   
    92    37    87 1   
    93    38    41 1   
    94    38    88 1   
    95    39    89 1   
    96    41    90 1   
    97    45    91 1   
    98    92    94 1   
@<TRIPOS>SUBSTRUCTURE
     1 PB8         1 TEMP              0 ****  ****    0 ROOT
