@<TRIPOS>MOLECULE
PB9
   73    77     1     0     0
SMALL
abcg2


@<TRIPOS>ATOM
      1 C1           1.0360    -5.1620     0.3770 ca         1 PB9      -0.023000
      2 C2           1.6570    -4.1220    -0.2760 ca         1 PB9      -0.207000
      3 C3           1.1280    -2.8160    -0.2550 ca         1 PB9       0.365000
      4 C4          -0.0680    -2.6030     0.4730 ca         1 PB9      -0.165300
      5 C5          -0.6690    -3.6530     1.1330 ca         1 PB9      -0.018000
      6 C6          -0.1400    -4.9440     1.0930 ca         1 PB9      -0.075000
      7 N10          1.7490    -1.7680    -0.8760 nh         1 PB9      -0.827400
      8 C11          1.1900    -0.4290    -0.8550 c6         1 PB9       0.194800
      9 C12          0.3930    -0.1810     0.4200 c6         1 PB9       0.221500
     10 C13         -0.6890    -1.2380     0.5370 c6         1 PB9      -0.027100
     11 C18         -0.7830    -6.0090     1.7780 cg         1 PB9       0.333000
     12 N19         -1.3080    -6.8750     2.3310 n1         1 PB9      -0.460000
     13 N20         -0.1510     1.1770     0.4980 n3         1 PB9      -0.757500
     14 S22          0.6550     2.2280     1.4740 sy         1 PB9       1.106200
     15 C23          2.2880     2.3790     0.7590 ca         1 PB9       0.122900
     16 O24          0.0020     3.5200     1.3680 o          1 PB9      -0.526000
     17 O25          0.8190     1.6130     2.7810 o          1 PB9      -0.526000
     18 N26          2.2940     2.9500    -0.4320 nb         1 PB9      -0.610000
     19 C27          3.4620     3.0670    -1.0440 ca         1 PB9       0.319900
     20 C28          4.6540     2.6240    -0.4820 ca         1 PB9      -0.096000
     21 C29          4.6220     2.0370     0.7700 ca         1 PB9      -0.092000
     22 C30          3.4020     1.9020     1.4210 ca         1 PB9      -0.072000
     23 C35         -0.9960     1.7080    -0.5780 c3         1 PB9       0.229800
     24 C36         -2.3800     2.1830    -0.1410 c6         1 PB9      -0.078700
     25 C39         -3.1300     2.7250    -1.3580 c6         1 PB9      -0.098400
     26 C40         -4.5350     3.1770    -0.9790 c6         1 PB9       0.104500
     27 N41         -5.2610     2.1000    -0.3280 n          1 PB9      -0.396800
     28 C42         -4.6040     1.6080     0.8720 c6         1 PB9       0.104500
     29 C43         -3.2050     1.1000     0.5470 c6         1 PB9      -0.098400
     30 C53         -6.2340     1.4430    -0.9940 c          1 PB9       0.639100
     31 O54         -6.6860     0.3800    -0.3220 os         1 PB9      -0.456100
     32 O55         -6.6810     1.7750    -2.0760 o          1 PB9      -0.546000
     33 C56         -7.7520    -0.3510    -0.9150 c3         1 PB9       0.169900
     34 C60          2.7670    -1.9450    -1.8950 c3         1 PB9       0.300100
     35 C61          4.0430    -1.2210    -1.6300 cc         1 PB9      -0.235300
     36 C64          4.7630    -0.3940    -2.4500 cd         1 PB9       0.241900
     37 N65          5.9470    -0.0520    -1.8690 nd         1 PB9      -0.674000
     38 C66          5.9390    -0.6490    -0.7060 cc         1 PB9       0.390400
     39 N67          4.8160    -1.3710    -0.5080 na         1 PB9      -0.148500
     40 C68          4.4930    -2.1120     0.6900 c3         1 PB9       0.055900
     41 H1           1.4750    -6.1500     0.3360 ha         1 PB9       0.124000
     42 H2           2.5760    -4.3480    -0.7970 ha         1 PB9       0.116000
     43 H5          -1.5780    -3.4640     1.6910 ha         1 PB9       0.125000
     44 H111         2.0200     0.2760    -0.9240 h1         1 PB9       0.055200
     45 H112         0.5640    -0.2710    -1.7420 h1         1 PB9       0.055200
     46 H12          1.0700    -0.3140     1.2680 h1         1 PB9       0.078700
     47 H131        -1.4130    -1.1200    -0.2750 hc         1 PB9       0.065700
     48 H132        -1.2370    -1.1160     1.4720 hc         1 PB9       0.065700
     49 H27          3.4540     3.5340    -2.0220 h4         1 PB9       0.028100
     50 H28          5.5810     2.7310    -1.0260 ha         1 PB9       0.142000
     51 H29          5.5310     1.6880     1.2410 ha         1 PB9       0.123000
     52 H30          3.3340     1.4450     2.3980 ha         1 PB9       0.148000
     53 H351        -0.4790     2.5120    -1.1090 h1         1 PB9       0.056700
     54 H352        -1.1210     0.9060    -1.3080 h1         1 PB9       0.056700
     55 H36         -2.2600     3.0090     0.5660 hc         1 PB9       0.080700
     56 H391        -2.5870     3.5690    -1.7920 hc         1 PB9       0.050700
     57 H392        -3.1980     1.9540    -2.1340 hc         1 PB9       0.050700
     58 H401        -4.4760     4.0170    -0.2790 h1         1 PB9       0.064700
     59 H402        -5.0860     3.5190    -1.8500 h1         1 PB9       0.064700
     60 H421        -4.5330     2.4410     1.5790 h1         1 PB9       0.064700
     61 H422        -5.2000     0.8370     1.3500 h1         1 PB9       0.064700
     62 H431        -3.2820     0.2160    -0.0940 hc         1 PB9       0.050700
     63 H432        -2.7210     0.7830     1.4740 hc         1 PB9       0.050700
     64 H561        -7.4700    -0.7680    -1.8820 h1         1 PB9       0.047033
     65 H562        -7.9690    -1.1660    -0.2290 h1         1 PB9       0.047033
     66 H563        -8.6460     0.2600    -1.0360 h1         1 PB9       0.047033
     67 H601         2.9640    -3.0040    -2.0470 h1         1 PB9       0.062700
     68 H602         2.3810    -1.5840    -2.8550 h1         1 PB9       0.062700
     69 H64          4.4810    -0.0490    -3.4340 h4         1 PB9       0.038100
     70 H66          6.7190    -0.5980     0.0400 h5         1 PB9       0.055100
     71 H681         4.2170    -3.1370     0.4510 h1         1 PB9       0.058033
     72 H682         5.3670    -2.1340     1.3350 h1         1 PB9       0.058033
     73 H683         3.6720    -1.6440     1.2320 h1         1 PB9       0.058033
@<TRIPOS>BOND
     1     1     2 ar  
     2     1     6 ar  
     3     1    41 1   
     4     2     3 ar  
     5     2    42 1   
     6     3     4 ar  
     7     3     7 1   
     8     4     5 ar  
     9     4    10 1   
    10     5     6 ar  
    11     5    43 1   
    12     6    11 1   
    13     7     8 1   
    14     7    34 1   
    15     8     9 1   
    16     8    44 1   
    17     8    45 1   
    18     9    10 1   
    19     9    13 1   
    20     9    46 1   
    21    10    47 1   
    22    10    48 1   
    23    11    12 3   
    24    13    14 1   
    25    13    23 1   
    26    14    15 1   
    27    14    16 2   
    28    14    17 2   
    29    15    18 ar  
    30    15    22 ar  
    31    18    19 ar  
    32    19    20 ar  
    33    19    49 1   
    34    20    21 ar  
    35    20    50 1   
    36    21    22 ar  
    37    21    51 1   
    38    22    52 1   
    39    23    24 1   
    40    23    53 1   
    41    23    54 1   
    42    24    25 1   
    43    24    29 1   
    44    24    55 1   
    45    25    26 1   
    46    25    56 1   
    47    25    57 1   
    48    26    27 1   
    49    26    58 1   
    50    26    59 1   
    51    27    28 1   
    52    27    30 1   
    53    28    29 1   
    54    28    60 1   
    55    28    61 1   
    56    29    62 1   
    57    29    63 1   
    58    30    31 1   
    59    30    32 2   
    60    31    33 1   
    61    33    64 1   
    62    33    65 1   
    63    33    66 1   
    64    34    35 1   
    65    34    67 1   
    66    34    68 1   
    67    35    36 2   
    68    35    39 1   
    69    36    37 1   
    70    36    69 1   
    71    37    38 2   
    72    38    39 1   
    73    38    70 1   
    74    39    40 1   
    75    40    71 1   
    76    40    72 1   
    77    40    73 1   
@<TRIPOS>SUBSTRUCTURE
     1 PB9         1 TEMP              0 ****  ****    0 ROOT
