@<TRIPOS>MOLECULE
PB9
   73    77     1     0     0
SMALL
No Charge or Current Charge


@<TRIPOS>ATOM
      1 C1           2.7080    -5.0840     0.2970 ca         1 PB9      -0.023000
      2 C2           2.9770    -3.9720    -0.5180 ca         1 PB9      -0.207000
      3 C3           2.0440    -2.9190    -0.6510 ca         1 PB9       0.365000
      4 C4           0.8380    -2.9990     0.0910 ca         1 PB9      -0.165300
      5 C5           0.5670    -4.1190     0.9020 ca         1 PB9      -0.018000
      6 C6           1.4990    -5.1640     1.0050 ca         1 PB9      -0.075000
      7 N10          2.3050    -1.7860    -1.4840 nh         1 PB9      -0.827400
      8 C11          1.4050    -0.5880    -1.4530 c6         1 PB9       0.194800
      9 C12          0.5260    -0.5110    -0.1700 c6         1 PB9       0.221500
     10 C13         -0.1870    -1.8660     0.0310 c6         1 PB9      -0.027100
     11 C18          1.2220    -6.3020     1.8370 cg         1 PB9       0.333000
     12 N19          0.9890    -7.2210     2.5190 n1         1 PB9      -0.460000
     13 N20         -0.4170     0.6600    -0.1250 n3         1 PB9      -0.757500
     14 S22          0.2850     2.1950     0.2260 sy         1 PB9       1.106200
     15 C23          1.7450     1.8270     1.3020 ca         1 PB9       0.122900
     16 O24          0.7430     2.7460    -1.0580 o          1 PB9      -0.526000
     17 O25         -0.7010     2.8940     1.0610 o          1 PB9      -0.526000
     18 N26          3.0130     1.9220     0.7910 nb         1 PB9      -0.610000
     19 C27          4.0580     1.6330     1.5990 ca         1 PB9       0.319900
     20 C28          3.9010     1.2320     2.9370 ca         1 PB9      -0.096000
     21 C29          2.6060     1.1300     3.4710 ca         1 PB9      -0.092000
     22 C30          1.5140     1.4350     2.6400 ca         1 PB9      -0.072000
     23 C35         -1.4240     0.6980    -1.2260 c3         1 PB9       0.229800
     24 C36         -2.7430     1.4790    -0.9330 c6         1 PB9      -0.078700
     25 C39         -3.7160     1.4040    -2.1290 c6         1 PB9      -0.098400
     26 C40         -5.0040     2.2190    -1.8740 c6         1 PB9       0.104500
     27 N41         -5.6700     1.9700    -0.5610 n          1 PB9      -0.396800
     28 C42         -4.7720     1.7280     0.6130 c6         1 PB9       0.104500
     29 C43         -3.4830     0.9310     0.3080 c6         1 PB9      -0.098400
     30 C53         -7.0010     2.3970    -0.3810 c          1 PB9       0.639100
     31 O54         -7.4030     2.3230     0.9260 os         1 PB9      -0.456100
     32 O55         -7.7130     2.7890    -1.2960 o          1 PB9      -0.546000
     33 C56         -8.7460     2.7310     1.2440 c3         1 PB9       0.169900
     34 C60          3.3040    -1.7890    -2.5800 c3         1 PB9       0.300100
     35 C61          4.3430    -0.7050    -2.4550 cc         1 PB9      -0.235300
     36 C64          4.6740     0.2560    -3.3760 cd         1 PB9       0.241900
     37 N65          5.6750     1.0750    -2.8950 nd         1 PB9      -0.674000
     38 C66          5.9500     0.6230    -1.6790 cc         1 PB9       0.390400
     39 N67          5.1670    -0.4690    -1.3680 na         1 PB9      -0.148500
     40 C68          5.2120    -1.2270    -0.1080 c3         1 PB9       0.055900
     41 H1           3.4450    -5.8820     0.3780 ha         1 PB9       0.124000
     42 H2           3.9310    -3.9450    -1.0290 ha         1 PB9       0.116000
     43 H5          -0.3670    -4.1720     1.4590 ha         1 PB9       0.125000
     44 H111         2.0060     0.3300    -1.5160 h1         1 PB9       0.055200
     45 H112         0.7490    -0.6070    -2.3350 h1         1 PB9       0.055200
     46 H12          1.2220    -0.4590     0.6770 h1         1 PB9       0.078700
     47 H131        -0.8850    -2.0820    -0.7870 hc         1 PB9       0.065700
     48 H132        -0.7800    -1.8300     0.9540 hc         1 PB9       0.065700
     49 H27          5.0510     1.7220     1.1600 h4         1 PB9       0.028100
     50 H28          4.7740     1.0080     3.5430 ha         1 PB9       0.142000
     51 H29          2.4520     0.8230     4.5030 ha         1 PB9       0.123000
     52 H30          0.4980     1.3610     3.0240 ha         1 PB9       0.148000
     53 H351        -0.9720     1.1180    -2.1350 h1         1 PB9       0.056700
     54 H352        -1.7400    -0.3160    -1.4940 h1         1 PB9       0.056700
     55 H36         -2.4810     2.5330    -0.7730 hc         1 PB9       0.080700
     56 H391        -3.2280     1.7730    -3.0420 hc         1 PB9       0.050700
     57 H392        -3.9860     0.3560    -2.3250 hc         1 PB9       0.050700
     58 H401        -4.7600     3.2900    -1.9320 h1         1 PB9       0.064700
     59 H402        -5.7120     2.0110    -2.6900 h1         1 PB9       0.064700
     60 H421        -4.4900     2.7050     1.0320 h1         1 PB9       0.064700
     61 H422        -5.3200     1.1890     1.3990 h1         1 PB9       0.064700
     62 H431        -3.7420    -0.1250     0.1480 hc         1 PB9       0.050700
     63 H432        -2.8300     0.9560     1.1900 hc         1 PB9       0.050700
     64 H561        -9.4800     2.1170     0.7060 h1         1 PB9       0.047033
     65 H562        -8.9330     2.6210     2.3200 h1         1 PB9       0.047033
     66 H563        -8.9090     3.7840     0.9770 h1         1 PB9       0.047033
     67 H601         3.8150    -2.7530    -2.6810 h1         1 PB9       0.062700
     68 H602         2.7760    -1.6460    -3.5340 h1         1 PB9       0.062700
     69 H64          4.2470     0.4030    -4.3610 h4         1 PB9       0.038100
     70 H66          6.6880     1.0240    -0.9940 h5         1 PB9       0.055100
     71 H681         5.4600    -2.2740    -0.3170 h1         1 PB9       0.058033
     72 H682         5.9750    -0.8040     0.5570 h1         1 PB9       0.058033
     73 H683         4.2360    -1.1750     0.3900 h1         1 PB9       0.058033
@<TRIPOS>BOND
     1     1     2 ar  
     2     1     6 ar  
     3     1    41 1   
     4     2     3 ar  
     5     2    42 1   
     6     3     4 ar  
     7     3     7 1   
     8     4     5 ar  
     9     4    10 1   
    10     5     6 ar  
    11     5    43 1   
    12     6    11 1   
    13     7     8 1   
    14     7    34 1   
    15     8     9 1   
    16     8    44 1   
    17     8    45 1   
    18     9    10 1   
    19     9    13 1   
    20     9    46 1   
    21    10    47 1   
    22    10    48 1   
    23    11    12 3   
    24    13    14 1   
    25    13    23 1   
    26    14    15 1   
    27    14    16 2   
    28    14    17 2   
    29    15    18 ar  
    30    15    22 ar  
    31    18    19 ar  
    32    19    20 ar  
    33    19    49 1   
    34    20    21 ar  
    35    20    50 1   
    36    21    22 ar  
    37    21    51 1   
    38    22    52 1   
    39    23    24 1   
    40    23    53 1   
    41    23    54 1   
    42    24    25 1   
    43    24    29 1   
    44    24    55 1   
    45    25    26 1   
    46    25    56 1   
    47    25    57 1   
    48    26    27 1   
    49    26    58 1   
    50    26    59 1   
    51    27    28 1   
    52    27    30 1   
    53    28    29 1   
    54    28    60 1   
    55    28    61 1   
    56    29    62 1   
    57    29    63 1   
    58    30    31 1   
    59    30    32 2   
    60    31    33 1   
    61    33    64 1   
    62    33    65 1   
    63    33    66 1   
    64    34    35 1   
    65    34    67 1   
    66    34    68 1   
    67    35    36 2   
    68    35    39 1   
    69    36    37 1   
    70    36    69 1   
    71    37    38 2   
    72    38    39 1   
    73    38    70 1   
    74    39    40 1   
    75    40    71 1   
    76    40    72 1   
    77    40    73 1   
@<TRIPOS>SUBSTRUCTURE
     1 PB9         1 TEMP              0 ****  ****    0 ROOT
