@<TRIPOS>MOLECULE
PBB
   26    26     1     0     0
SMALL
bcc


@<TRIPOS>ATOM
      1 CA          24.6810    -5.1390     6.6680 c3         1 PBB       0.008500
      2 C           25.5280    -4.3650     5.6180 c          1 PBB       0.904600
      3 O           24.9720    -3.4250     5.0220 o          1 PBB      -0.832800
      4 OXT         26.6950    -4.7800     5.4510 o          1 PBB      -0.832800
      5 N           23.5230    -4.4380     7.1910 n8         1 PBB      -0.876800
      6 CB          24.2440    -6.4620     6.0370 c3         1 PBB       0.063700
      7 SG          23.6010    -7.6910     7.2060 ss         1 PBB      -0.396200
      8 BR          28.9220   -11.2830     4.2520 br         1 PBB      -0.137100
      9 C1          26.0710    -8.9530     7.1310 ca         1 PBB      -0.061300
     10 C2          27.1110    -8.2990     6.4760 ca         1 PBB      -0.116500
     11 C3          27.9610    -8.9820     5.6160 ca         1 PBB      -0.107500
     12 C4          27.7680   -10.3390     5.4150 ca         1 PBB      -0.024900
     13 C5          26.7390   -11.0180     6.0560 ca         1 PBB      -0.107500
     14 C6          25.8980   -10.3170     6.9050 ca         1 PBB      -0.116500
     15 C7          25.1430    -8.2040     8.0350 c3         1 PBB       0.065000
     16 HA          25.3460    -5.3630     7.5080 h1         1 PBB       0.037700
     17 H           23.8410    -3.6650     7.7630 hn         1 PBB       0.328800
     18 H2          23.0500    -3.9970     6.4090 hn         1 PBB       0.328800
     19 HB2         23.4320    -6.2870     5.3260 h1         1 PBB       0.070700
     20 HB3         25.0610    -6.9160     5.4750 h1         1 PBB       0.070700
     21 HC2         27.2540    -7.2340     6.6180 ha         1 PBB       0.154000
     22 H3          28.7600    -8.4500     5.1160 ha         1 PBB       0.142000
     23 H5          26.5900   -12.0780     5.9010 ha         1 PBB       0.142000
     24 H6          25.0940   -10.8470     7.4030 ha         1 PBB       0.154000
     25 H71         25.6330    -7.3260     8.4590 h1         1 PBB       0.068700
     26 H72         24.8200    -8.8290     8.8690 h1         1 PBB       0.068700
@<TRIPOS>BOND
     1     1     2 1   
     2     1     5 1   
     3     1     6 1   
     4     1    16 1   
     5     2     3 1   
     6     2     4 1   
     7     5    17 1   
     8     5    18 1   
     9     6     7 1   
    10     6    19 1   
    11     6    20 1   
    12     7    15 1   
    13     8    12 1   
    14     9    10 ar  
    15     9    14 ar  
    16     9    15 1   
    17    10    11 ar  
    18    10    21 1   
    19    11    12 ar  
    20    11    22 1   
    21    12    13 ar  
    22    13    14 ar  
    23    13    23 1   
    24    14    24 1   
    25    15    25 1   
    26    15    26 1   
@<TRIPOS>SUBSTRUCTURE
     1 PBB         1 TEMP              0 ****  ****    0 ROOT
