@<TRIPOS>MOLECULE
PBB
   26    26     1     0     0
SMALL
No Charge or Current Charge


@<TRIPOS>ATOM
      1 CA          24.7680    -5.3010     6.5450 c3         1 PBB       0.008500
      2 C           25.5020    -4.6090     5.3220 c          1 PBB       0.904600
      3 O           24.8400    -4.2860     4.3400 o          1 PBB      -0.832800
      4 OXT         26.6950    -4.3430     5.4270 o          1 PBB      -0.832800
      5 N           23.7850    -4.4410     7.3170 n8         1 PBB      -0.876800
      6 CB          24.1130    -6.6250     6.0650 c3         1 PBB       0.063700
      7 SG          23.5190    -7.7060     7.4600 ss         1 PBB      -0.396200
      8 Br          28.8890   -10.9850     4.0900 br         1 PBB      -0.137100
      9 C1          26.0480    -8.8840     7.2330 ca         1 PBB      -0.061300
     10 C2          27.2400    -8.2540     6.8200 ca         1 PBB      -0.116500
     11 C3          28.0840    -8.8790     5.8850 ca         1 PBB      -0.107500
     12 C4          27.7410   -10.1370     5.3620 ca         1 PBB      -0.024900
     13 C5          26.5570   -10.7720     5.7700 ca         1 PBB      -0.107500
     14 C6          25.7130   -10.1460     6.7050 ca         1 PBB      -0.116500
     15 C7          25.1260    -8.2070     8.2380 c3         1 PBB       0.065000
     16 HA          25.5630    -5.5690     7.2520 h1         1 PBB       0.037700
     17 H           24.2610    -3.5950     7.6490 hn         1 PBB       0.328800
     18 H2          23.0700    -4.0900     6.6710 hn         1 PBB       0.328800
     19 HB2         23.2600    -6.3920     5.4140 h1         1 PBB       0.070700
     20 HB3         24.8370    -7.1920     5.4650 h1         1 PBB       0.070700
     21 HC2         27.5120    -7.2790     7.2200 ha         1 PBB       0.154000
     22 H3          29.0020    -8.3890     5.5670 ha         1 PBB       0.142000
     23 H5          26.2920   -11.7460     5.3630 ha         1 PBB       0.142000
     24 H6          24.7930   -10.6390     7.0160 ha         1 PBB       0.154000
     25 H71         25.6120    -7.3210     8.6660 h1         1 PBB       0.068700
     26 H72         24.9160    -8.9000     9.0640 h1         1 PBB       0.068700
@<TRIPOS>BOND
     1     1     2 1   
     2     1     5 1   
     3     1     6 1   
     4     1    16 1   
     5     2     3 1   
     6     2     4 1   
     7     5    17 1   
     8     5    18 1   
     9     6     7 1   
    10     6    19 1   
    11     6    20 1   
    12     7    15 1   
    13     8    12 1   
    14     9    10 ar  
    15     9    14 ar  
    16     9    15 1   
    17    10    11 ar  
    18    10    21 1   
    19    11    12 ar  
    20    11    22 1   
    21    12    13 ar  
    22    13    14 ar  
    23    13    23 1   
    24    14    24 1   
    25    15    25 1   
    26    15    26 1   
@<TRIPOS>SUBSTRUCTURE
     1 PBB         1 TEMP              0 ****  ****    0 ROOT
