@<TRIPOS>MOLECULE
PBD
   42    43     1     0     0
SMALL
abcg2


@<TRIPOS>ATOM
      1 CAA          6.9730     1.6950     0.5280 c3         1 PBD       0.144900
      2 CAB          4.8530    -3.1730    -0.4580 c3         1 PBD       0.145900
      3 SAC          0.1580     1.7750    -1.4000 s          1 PBD      -0.648400
      4 CAD         -7.8410    -0.5630     1.3640 cc         1 PBD       0.232900
      5 CAE          2.7870     1.2890     0.4980 ca         1 PBD      -0.082000
      6 CAF          4.1700     1.4540     0.5010 ca         1 PBD      -0.158000
      7 CAG         -6.7770     0.2790     1.2020 cd         1 PBD      -0.236000
      8 CAH         -6.9950    -1.0340    -0.5280 cd         1 PBD       0.388400
      9 CAI          3.0900    -1.0420    -0.0020 ca         1 PBD      -0.196000
     10 CAJ         -3.7840    -0.0290    -0.0210 c3         1 PBD      -0.122400
     11 CAK         -2.5620     0.6190    -0.6530 c3         1 PBD       0.113000
     12 CAL         -5.0610     0.5460    -0.6150 c3         1 PBD       0.077600
     13 NAM         -7.9680    -1.3780     0.2760 nc         1 PBD      -0.669000
     14 NAN         -1.3580     0.0690    -0.0730 ns         1 PBD      -0.458900
     15 OAP          6.3640     0.4460     0.2750 os         1 PBD      -0.320100
     16 CAR         -0.1210     0.4950    -0.3490 cs         1 PBD       0.478400
     17 CAS          2.2450     0.0460     0.2360 ca         1 PBD       0.055600
     18 CAT          5.0190     0.3840     0.2740 ca         1 PBD       0.112100
     19 CAU          4.4660    -0.8880     0.0250 ca         1 PBD       0.125100
     20 NAV         -6.2480    -0.0320    -0.0190 na         1 PBD      -0.172500
     21 HAA          8.0460     1.5260     0.5070 h1         1 PBD       0.041033
     22 HAAA         6.7190     2.4360    -0.2340 h1         1 PBD       0.041033
     23 HAAB         6.6980     2.0940     1.5090 h1         1 PBD       0.041033
     24 HAB          5.7190    -3.8160    -0.5920 h1         1 PBD       0.040033
     25 HABA         4.2480    -3.5630     0.3660 h1         1 PBD       0.040033
     26 HABB         4.2540    -3.1920    -1.3730 h1         1 PBD       0.040033
     27 HAE          2.1490     2.1370     0.7000 ha         1 PBD       0.140000
     28 HAF          4.5680     2.4390     0.7040 ha         1 PBD       0.126000
     29 HAG         -6.3650     1.0550     1.8260 h4         1 PBD       0.156000
     30 HAH         -6.7850    -1.4690    -1.4940 h5         1 PBD       0.053100
     31 HAI          2.6470    -2.0070    -0.2110 ha         1 PBD       0.118000
     32 HAJ         -3.7640    -1.1100    -0.1830 hc         1 PBD       0.058700
     33 HAJA        -3.7730     0.1400     1.0590 hc         1 PBD       0.058700
     34 HAK         -2.5660     0.4610    -1.7350 h1         1 PBD       0.071200
     35 HAKA        -2.5840     1.7000    -0.4950 h1         1 PBD       0.071200
     36 HAL         -5.0970     1.6270    -0.4740 h1         1 PBD       0.067200
     37 HALA        -5.1020     0.3600    -1.6880 h1         1 PBD       0.067200
     38 HNAN        -1.4710    -0.6940     0.5780 hn         1 PBD       0.302500
     39 NAO          0.8590    -0.1990     0.2730 ns         1 PBD      -0.367100
     40 OAQ          5.3510    -1.8800    -0.1820 os         1 PBD      -0.318100
     41 HAD         -8.5170    -0.6180     2.2040 h4         1 PBD       0.039100
     42 HNAO         0.5890    -1.0560     0.7360 hn         1 PBD       0.304500
@<TRIPOS>BOND
     1     1    15 1   
     2     1    21 1   
     3     1    22 1   
     4     1    23 1   
     5     2    24 1   
     6     2    25 1   
     7     2    26 1   
     8     2    40 1   
     9     3    16 2   
    10     4     7 2   
    11     4    13 1   
    12     4    41 1   
    13     5     6 ar  
    14     5    17 ar  
    15     5    27 1   
    16     6    18 ar  
    17     6    28 1   
    18     7    20 1   
    19     7    29 1   
    20     8    13 2   
    21     8    20 1   
    22     8    30 1   
    23     9    17 ar  
    24     9    19 ar  
    25     9    31 1   
    26    10    11 1   
    27    10    12 1   
    28    10    32 1   
    29    10    33 1   
    30    11    14 1   
    31    11    34 1   
    32    11    35 1   
    33    12    20 1   
    34    12    36 1   
    35    12    37 1   
    36    14    16 1   
    37    14    38 1   
    38    15    18 1   
    39    16    39 1   
    40    17    39 1   
    41    18    19 ar  
    42    19    40 1   
    43    39    42 1   
@<TRIPOS>SUBSTRUCTURE
     1 PBD         1 TEMP              0 ****  ****    0 ROOT
