@<TRIPOS>MOLECULE
PBD
   42    43     1     0     0
SMALL
No Charge or Current Charge


@<TRIPOS>ATOM
      1 CAA          7.2450     1.5870     0.3400 c3         1 PBD       0.144900
      2 CAB          4.6810    -3.3970     0.0350 c3         1 PBD       0.145900
      3 SAC          0.0700     2.3430    -1.2030 s          1 PBD      -0.648400
      4 CAD         -7.8870    -1.1060     1.2230 cc         1 PBD       0.232900
      5 CAE          2.9420     1.4360     0.1660 ca         1 PBD      -0.082000
      6 CAF          4.3450     1.5070     0.2270 ca         1 PBD      -0.158000
      7 CAG         -6.8910    -0.1700     1.2890 cd         1 PBD      -0.236000
      8 CAH         -6.9910    -1.1050    -0.7360 cd         1 PBD       0.388400
      9 CAI          3.0580    -0.9880     0.0670 ca         1 PBD      -0.196000
     10 CAJ         -3.8190     0.0630    -0.0500 c3         1 PBD      -0.122400
     11 CAK         -2.6400     0.9420    -0.5090 c3         1 PBD       0.113000
     12 CAL         -5.1900     0.6700    -0.4120 c3         1 PBD       0.077600
     13 NAM         -7.9500    -1.6790    -0.0170 nc         1 PBD      -0.669000
     14 NAN         -1.3540     0.3430    -0.1520 ns         1 PBD      -0.458900
     15 OAP          6.5030     0.3570     0.2610 os         1 PBD      -0.320100
     16 CAR         -0.1270     0.8890    -0.3980 cs         1 PBD       0.478400
     17 CAS          2.2920     0.1900     0.0710 ca         1 PBD       0.055600
     18 CAT          5.1180     0.3250     0.2030 ca         1 PBD       0.112100
     19 CAU          4.4700    -0.9300     0.1260 ca         1 PBD       0.125100
     20 NAV         -6.3140    -0.1670     0.0310 na         1 PBD      -0.172500
     21 HAA          8.3220     1.3780     0.3730 h1         1 PBD       0.041033
     22 HAAA         7.0480     2.2190    -0.5350 h1         1 PBD       0.041033
     23 HAAB         6.9800     2.1450     1.2470 h1         1 PBD       0.041033
     24 HAB          5.4760    -4.1520     0.0370 h1         1 PBD       0.040033
     25 HABA         4.0260    -3.5910     0.8940 h1         1 PBD       0.040033
     26 HABB         4.1000    -3.5180    -0.8880 h1         1 PBD       0.040033
     27 HAE          2.3710     2.3570     0.2150 ha         1 PBD       0.140000
     28 HAF          4.8090     2.4860     0.2990 ha         1 PBD       0.126000
     29 HAG         -6.5680     0.4630     2.1070 h4         1 PBD       0.156000
     30 HAH         -6.7370    -1.3070    -1.7700 h5         1 PBD       0.053100
     31 HAI          2.5430    -1.9410     0.0080 ha         1 PBD       0.118000
     32 HAJ         -3.7310    -0.9290    -0.5100 hc         1 PBD       0.058700
     33 HAJA        -3.7640    -0.0770     1.0370 hc         1 PBD       0.058700
     34 HAK         -2.6810     1.0740    -1.5990 h1         1 PBD       0.071200
     35 HAKA        -2.7140     1.9320    -0.0390 h1         1 PBD       0.071200
     36 HAL         -5.2870     1.6600     0.0530 h1         1 PBD       0.067200
     37 HALA        -5.2560     0.8040    -1.5000 h1         1 PBD       0.067200
     38 HNAN        -1.3780    -0.5490     0.3260 hn         1 PBD       0.302500
     39 NAO          0.8820     0.0650     0.0250 ns         1 PBD      -0.367100
     40 OAQ          5.2480    -2.0770     0.1120 os         1 PBD      -0.318100
     41 HAD         -8.5750    -1.4090     2.0020 h4         1 PBD       0.039100
     42 HNAO         0.5580    -0.8170     0.4010 hn         1 PBD       0.304500
@<TRIPOS>BOND
     1     1    15 1   
     2     1    21 1   
     3     1    22 1   
     4     1    23 1   
     5     2    24 1   
     6     2    25 1   
     7     2    26 1   
     8     2    40 1   
     9     3    16 2   
    10     4     7 2   
    11     4    13 1   
    12     4    41 1   
    13     5     6 ar  
    14     5    17 ar  
    15     5    27 1   
    16     6    18 ar  
    17     6    28 1   
    18     7    20 1   
    19     7    29 1   
    20     8    13 2   
    21     8    20 1   
    22     8    30 1   
    23     9    17 ar  
    24     9    19 ar  
    25     9    31 1   
    26    10    11 1   
    27    10    12 1   
    28    10    32 1   
    29    10    33 1   
    30    11    14 1   
    31    11    34 1   
    32    11    35 1   
    33    12    20 1   
    34    12    36 1   
    35    12    37 1   
    36    14    16 1   
    37    14    38 1   
    38    15    18 1   
    39    16    39 1   
    40    17    39 1   
    41    18    19 ar  
    42    19    40 1   
    43    39    42 1   
@<TRIPOS>SUBSTRUCTURE
     1 PBD         1 TEMP              0 ****  ****    0 ROOT
