@<TRIPOS>MOLECULE
PBE
   23    23     1     0     0
SMALL
No Charge or Current Charge


@<TRIPOS>ATOM
      1 N           26.5720    23.1180    73.2730 n4         1 PBE      -0.497000
      2 CD          27.2190    21.9080    73.9870 c5         1 PBE       0.113600
      3 CA          25.1010    22.5920    73.1400 c5         1 PBE      -0.030700
      4 CB          25.2730    21.0940    72.7160 c5         1 PBE      -0.079400
      5 CG          26.7170    20.6950    73.1610 c5         1 PBE      -0.087400
      6 CE          26.6610    24.3890    74.1250 c3         1 PBE       0.084900
      7 CF          27.2080    23.4010    71.9020 c3         1 PBE       0.084900
      8 C           24.1640    22.6920    74.3990 c          1 PBE       0.710000
      9 O           24.4110    22.0360    75.4020 o          1 PBE      -0.668500
     10 OXT         23.2100    23.4550    74.3430 o          1 PBE      -0.668500
     11 HD1         26.8530    21.8910    75.0160 hx         1 PBE       0.094200
     12 HD2         28.3060    22.0240    74.0030 hx         1 PBE       0.094200
     13 HA          24.6040    23.1890    72.3730 hx         1 PBE       0.085700
     14 HB1         25.1670    20.9880    71.6300 hc         1 PBE       0.069200
     15 HB2         24.5100    20.4450    73.1610 hc         1 PBE       0.069200
     16 HG1         26.7330    19.7720    73.7510 hc         1 PBE       0.066700
     17 HG2         27.3610    20.5260    72.2910 hc         1 PBE       0.066700
     18 HE1         26.1080    25.1900    73.6310 hx         1 PBE       0.082200
     19 HE2         27.7100    24.6750    74.2330 hx         1 PBE       0.082200
     20 HE3         26.2300    24.1940    75.1090 hx         1 PBE       0.082200
     21 HF1         27.1360    22.5090    71.2770 hx         1 PBE       0.082200
     22 HF2         28.2570    23.6700    72.0430 hx         1 PBE       0.082200
     23 HF3         26.6750    24.2260    71.4260 hx         1 PBE       0.082200
@<TRIPOS>BOND
     1     1     2 1   
     2     1     3 1   
     3     1     6 1   
     4     1     7 1   
     5     2     5 1   
     6     2    11 1   
     7     2    12 1   
     8     3     4 1   
     9     3     8 1   
    10     3    13 1   
    11     4     5 1   
    12     4    14 1   
    13     4    15 1   
    14     5    16 1   
    15     5    17 1   
    16     6    18 1   
    17     6    19 1   
    18     6    20 1   
    19     7    21 1   
    20     7    22 1   
    21     7    23 1   
    22     8     9 1   
    23     8    10 1   
@<TRIPOS>SUBSTRUCTURE
     1 PBE         1 TEMP              0 ****  ****    0 ROOT
