@<TRIPOS>MOLECULE
PBE
   23    23     1     0     0
SMALL
abcg2


@<TRIPOS>ATOM
      1 N           26.5540    23.1040    73.3030 n4         1 PBE      -0.497000
      2 CD          27.2630    21.9120    73.9100 c5         1 PBE       0.113600
      3 CA          25.1130    22.6280    73.1050 c5         1 PBE      -0.030700
      4 CB          25.2910    21.1780    72.6310 c5         1 PBE      -0.079400
      5 CG          26.6190    20.6860    73.2590 c5         1 PBE      -0.087400
      6 CE          26.6670    24.3240    74.1580 c3         1 PBE       0.084900
      7 CF          27.1490    23.4150    71.9620 c3         1 PBE       0.084900
      8 C           24.2310    22.6770    74.3820 c          1 PBE       0.710000
      9 O           24.7510    22.3600    75.4760 o          1 PBE      -0.668500
     10 OXT         23.0360    22.9710    74.1580 o          1 PBE      -0.668500
     11 HD1         27.0620    21.9490    74.9730 hx         1 PBE       0.094200
     12 HD2         28.3290    22.0200    73.7230 hx         1 PBE       0.094200
     13 HA          24.6730    23.2760    72.3520 hx         1 PBE       0.085700
     14 HB1         25.3400    21.1360    71.5440 hc         1 PBE       0.069200
     15 HB2         24.4410    20.5740    72.9410 hc         1 PBE       0.069200
     16 HG1         26.4430    19.9240    74.0160 hc         1 PBE       0.066700
     17 HG2         27.2660    20.2550    72.4980 hc         1 PBE       0.066700
     18 HE1         26.1010    25.1250    73.6880 hx         1 PBE       0.082200
     19 HE2         27.7170    24.5970    74.2210 hx         1 PBE       0.082200
     20 HE3         26.2680    24.0960    75.1390 hx         1 PBE       0.082200
     21 HF1         27.1080    22.5330    71.3300 hx         1 PBE       0.082200
     22 HF2         28.1830    23.7150    72.1110 hx         1 PBE       0.082200
     23 HF3         26.5810    24.2240    71.5120 hx         1 PBE       0.082200
@<TRIPOS>BOND
     1     1     2 1   
     2     1     3 1   
     3     1     6 1   
     4     1     7 1   
     5     2     5 1   
     6     2    11 1   
     7     2    12 1   
     8     3     4 1   
     9     3     8 1   
    10     3    13 1   
    11     4     5 1   
    12     4    14 1   
    13     4    15 1   
    14     5    16 1   
    15     5    17 1   
    16     6    18 1   
    17     6    19 1   
    18     6    20 1   
    19     7    21 1   
    20     7    22 1   
    21     7    23 1   
    22     8     9 1   
    23     8    10 1   
@<TRIPOS>SUBSTRUCTURE
     1 PBE         1 TEMP              0 ****  ****    0 ROOT
