@<TRIPOS>MOLECULE
PBG
   28    28     1     0     0
SMALL
bcc


@<TRIPOS>ATOM
      1 CHA         -0.2630    -0.2270     3.6930 c3         1 PBG       0.242100
      2 C1A         -0.8560    -0.3510     2.3320 cc         1 PBG      -0.160600
      3 C2A         -0.2450    -0.6040     1.1220 cd         1 PBG      -0.061300
      4 C3A         -1.2590    -0.5600     0.1170 cd         1 PBG      -0.112300
      5 C4A         -2.4390    -0.2700     0.7600 cc         1 PBG      -0.210300
      6 NA          -2.1810    -0.1420     2.0900 na         1 PBG      -0.176100
      7 C5A          1.2080    -0.8720     0.8960 c3         1 PBG      -0.142100
      8 C6A          2.0880     0.3780     0.6740 c          1 PBG       0.936600
      9 O1A          1.9170     1.3460     1.4460 o          1 PBG      -0.847800
     10 O2A          2.9370     0.3170    -0.2370 o          1 PBG      -0.847800
     11 C7A         -1.0900    -0.7720    -1.3550 c3         1 PBG       0.019900
     12 C8A         -0.4180     0.4010    -2.0630 c3         1 PBG      -0.207400
     13 C9A         -0.3270     0.2990    -3.5940 c          1 PBG       0.929600
     14 O3A         -0.6710    -0.7720    -4.1330 o          1 PBG      -0.872300
     15 O4A          0.1010     1.3150    -4.1820 o          1 PBG      -0.872300
     16 N1           0.1350     1.1540     3.9600 n8         1 PBG      -0.907800
     17 HHA2         0.5690    -0.9410     3.7680 h1         1 PBG       0.002200
     18 HHA1        -0.9960    -0.5360     4.4450 h1         1 PBG       0.002200
     19 H4A1        -3.4390    -0.1600     0.3690 h4         1 PBG       0.133000
     20 HA          -2.8690     0.0620     2.7950 hn         1 PBG       0.257700
     21 H5A2         1.6220    -1.3930     1.7680 hc         1 PBG       0.020200
     22 H5A1         1.3330    -1.5550     0.0520 hc         1 PBG       0.020200
     23 H7A2        -0.5090    -1.6810    -1.5390 hc         1 PBG       0.027200
     24 H7A1        -2.0700    -0.9540    -1.8040 hc         1 PBG       0.027200
     25 H8A2        -0.9380     1.3290    -1.8040 hc         1 PBG       0.045200
     26 H8A1         0.6000     0.5280    -1.6780 hc         1 PBG       0.045200
     27 H12          0.6350     1.1860     4.8410 hn         1 PBG       0.355800
     28 H11          0.8050     1.4030     3.2360 hn         1 PBG       0.355800
@<TRIPOS>BOND
     1     1     2 1   
     2     1    16 1   
     3     1    17 1   
     4     1    18 1   
     5     2     3 2   
     6     2     6 1   
     7     3     4 1   
     8     3     7 1   
     9     4     5 2   
    10     4    11 1   
    11     5     6 1   
    12     5    19 1   
    13     6    20 1   
    14     7     8 1   
    15     7    21 1   
    16     7    22 1   
    17     8     9 1   
    18     8    10 1   
    19    11    12 1   
    20    11    23 1   
    21    11    24 1   
    22    12    13 1   
    23    12    25 1   
    24    12    26 1   
    25    13    14 1   
    26    13    15 1   
    27    16    27 1   
    28    16    28 1   
@<TRIPOS>SUBSTRUCTURE
     1 PBG         1 TEMP              0 ****  ****    0 ROOT
