@<TRIPOS>MOLECULE
PBG
   28    28     1     0     0
SMALL
No Charge or Current Charge


@<TRIPOS>ATOM
      1 CHA         -0.3550    -0.1800     3.7120 c3         1 PBG       0.242100
      2 C1A         -0.8760    -0.1830     2.3000 cc         1 PBG      -0.211300
      3 C2A         -0.2490    -0.5210     1.1200 cd         1 PBG      -0.061300
      4 C3A         -1.2080    -0.4130     0.0680 cd         1 PBG      -0.112300
      5 C4A         -2.3960     0.0070     0.6040 cc         1 PBG      -0.243000
      6 NA          -2.1850     0.1550     1.9690 na         1 PBG      -0.125000
      7 C5A          1.1990    -0.9680     0.9840 c3         1 PBG      -0.142100
      8 C6A          2.2000     0.2090     1.0470 c          1 PBG       0.726000
      9 O1A          2.5900     0.5820     2.1450 o          1 PBG      -0.742500
     10 O2A          2.5020     0.7750     0.0070 o          1 PBG      -0.742500
     11 C7A         -1.0060    -0.7260    -1.4000 c3         1 PBG       0.019900
     12 C8A         -0.5260     0.4920    -2.2190 c3         1 PBG      -0.207400
     13 C9A         -0.4350     0.1190    -3.7040 c          1 PBG       0.719000
     14 O3A          0.6110    -0.3540    -4.1210 o          1 PBG      -0.767000
     15 O4A         -1.4280     0.2710    -4.4000 o          1 PBG      -0.767000
     16 N1           0.3990     1.0420     3.9750 n8         1 PBG      -1.018200
     17 HHA2         0.3080    -1.0410     3.8710 h1         1 PBG       0.002200
     18 HHA1        -1.1870    -0.2410     4.4260 h1         1 PBG       0.002200
     19 H4A1        -3.3530     0.2030     0.1360 h4         1 PBG       0.115000
     20 HA          -2.8880     0.4570     2.6370 hn         1 PBG       0.308000
     21 H5A2         1.3870    -1.6460     1.8250 hc         1 PBG       0.020200
     22 H5A1         1.3010    -1.4740     0.0190 hc         1 PBG       0.020200
     23 H7A2        -0.3020    -1.5560    -1.5290 hc         1 PBG       0.027200
     24 H7A1        -1.9550    -1.0790    -1.8230 hc         1 PBG       0.027200
     25 H8A2        -1.2800     1.2730    -2.0670 hc         1 PBG       0.045200
     26 H8A1         0.4640     0.7480    -1.8270 hc         1 PBG       0.045200
     27 H12          0.8420     0.9560     4.8950 hn         1 PBG       0.411000
     28 H11          1.2040     1.0210     3.3250 hn         1 PBG       0.411000
@<TRIPOS>BOND
     1     1     2 1   
     2     1    16 1   
     3     1    17 1   
     4     1    18 1   
     5     2     3 2   
     6     2     6 1   
     7     3     4 1   
     8     3     7 1   
     9     4     5 2   
    10     4    11 1   
    11     5     6 1   
    12     5    19 1   
    13     6    20 1   
    14     7     8 1   
    15     7    21 1   
    16     7    22 1   
    17     8     9 1   
    18     8    10 1   
    19    11    12 1   
    20    11    23 1   
    21    11    24 1   
    22    12    13 1   
    23    12    25 1   
    24    12    26 1   
    25    13    14 1   
    26    13    15 1   
    27    16    27 1   
    28    16    28 1   
@<TRIPOS>SUBSTRUCTURE
     1 PBG         1 TEMP              0 ****  ****    0 ROOT
