@<TRIPOS>MOLECULE
PBH
   84    90     1     0     0
SMALL
No Charge or Current Charge


@<TRIPOS>ATOM
      1 C1          10.4730     4.1720     1.3660 c5         1 PBH      -0.086400
      2 O2           7.3510    -3.0180     0.0590 os         1 PBH      -0.321100
      3 C3          11.8430     2.8770    -0.0880 c5         1 PBH       0.095000
      4 N4          10.4780     2.3020    -0.0860 n          1 PBH      -0.412800
      5 O4           0.3330    -2.2590     0.1310 os         1 PBH      -0.342100
      6 N5         -10.7790     0.7490     0.0270 nh         1 PBH      -0.791400
      7 O5          11.1280     0.3150    -1.0120 o          1 PBH      -0.560000
      8 N6         -13.1780     2.5300     0.0240 n3         1 PBH      -0.714600
      9 C7           7.4710    -1.6480    -0.1110 ca         1 PBH       0.102100
     10 C9           6.3950     0.5250    -0.3630 ca         1 PBH      -0.163000
     11 N10          7.6550     2.5220    -0.6970 nu         1 PBH      -0.889200
     12 C11          8.2780     3.5230     0.1860 c3         1 PBH       0.160800
     13 C12          8.4900    -3.8940     0.1400 c3         1 PBH       0.142900
     14 C13          3.8210    -0.8030    -0.1350 c3         1 PBH       0.163600
     15 O13          5.0710    -1.5100    -0.0770 os         1 PBH      -0.322100
     16 C14          2.6950    -1.8400     0.0210 c3         1 PBH      -0.088400
     17 C15          1.2960    -1.2030    -0.0230 c3         1 PBH       0.166600
     18 C17         -1.0260    -2.0200     0.1340 ca         1 PBH       0.160100
     19 C18         -1.8840    -3.1170     0.2900 ca         1 PBH      -0.178000
     20 C19         -1.5740    -0.7290    -0.0110 ca         1 PBH      -0.178000
     21 C1A          9.5750     3.0040     0.8540 c5         1 PBH       0.072700
     22 C20         -3.2780    -2.9380     0.3020 ca         1 PBH      -0.045000
     23 C21         -2.9680    -0.5470     0.0000 ca         1 PBH      -0.045000
     24 C22         -3.8390    -1.6500     0.1570 ca         1 PBH      -0.150900
     25 C23         -5.3000    -1.4720     0.1710 cc         1 PBH       0.474400
     26 C24         -7.2790    -0.4770     0.0970 ca         1 PBH      -0.051200
     27 C25         -7.4320    -1.8190     0.2650 ca         1 PBH       0.048400
     28 C26         -8.3570     0.4100     0.0140 ca         1 PBH      -0.161000
     29 C27         -8.7130    -2.3800     0.3620 ca         1 PBH      -0.025000
     30 C28         -9.6640    -0.1190     0.1090 ca         1 PBH       0.306000
     31 C29         -9.8310    -1.5190     0.2820 ca         1 PBH      -0.182000
     32 C2D         11.8830     3.5430     1.3080 c5         1 PBH      -0.098400
     33 C30        -12.1190     0.2560    -0.4300 c6         1 PBH       0.196800
     34 N30         -6.2020    -2.4670     0.3150 nd         1 PBH      -0.572100
     35 C31        -10.8780     1.9280     0.9460 c6         1 PBH       0.196800
     36 C32        -13.0390     1.4080    -0.9530 c6         1 PBH       0.157800
     37 C33        -11.8250     3.0460     0.3950 c6         1 PBH       0.157800
     38 C34        -14.0830     3.5960    -0.4560 c3         1 PBH       0.152100
     39 N40         -5.9410    -0.2410     0.0350 na         1 PBH      -0.317600
     40 C5A          8.8350     0.3870    -0.3800 ca         1 PBH      -0.176600
     41 C5D         10.2280     0.9790    -0.5110 c          1 PBH       0.576600
     42 C6D          8.7290    -1.0160    -0.2190 ca         1 PBH      -0.120000
     43 C8D          6.2960    -0.8700    -0.1810 ca         1 PBH       0.134100
     44 C9A          7.6470     1.1510    -0.4560 ca         1 PBH       0.247000
     45 H1          10.4160     5.0510     0.7120 hc         1 PBH       0.053700
     46 H1A         10.1960     4.5000     2.3740 hc         1 PBH       0.053700
     47 H3          12.6350     2.1230    -0.1970 h1         1 PBH       0.061200
     48 H3A         11.9530     3.6140    -0.8950 h1         1 PBH       0.061200
     49 H9           5.5040     1.1390    -0.4340 ha         1 PBH       0.134000
     50 HN10         6.8100     2.8530    -1.1650 hn         1 PBH       0.433000
     51 H11          8.5000     4.4260    -0.3990 h1         1 PBH       0.058200
     52 H11A         7.5780     3.8110     0.9830 h1         1 PBH       0.058200
     53 H12          9.1280    -3.6270     0.9920 h1         1 PBH       0.042700
     54 H12A         8.1610    -4.9320     0.2740 h1         1 PBH       0.042700
     55 H12B         9.0870    -3.8430    -0.7800 h1         1 PBH       0.042700
     56 H13          3.7550    -0.0650     0.6760 h1         1 PBH       0.035700
     57 H13A         3.7120    -0.2850    -1.0960 h1         1 PBH       0.035700
     58 H14          2.7780    -2.5840    -0.7800 hc         1 PBH       0.074700
     59 H14A         2.8210    -2.3670     0.9740 hc         1 PBH       0.074700
     60 H15          1.1570    -0.6880    -0.9830 h1         1 PBH       0.036200
     61 H15A         1.2000    -0.4690     0.7880 h1         1 PBH       0.036200
     62 H18         -1.4660    -4.1140     0.4030 ha         1 PBH       0.125000
     63 H19         -0.9380     0.1430    -0.1340 ha         1 PBH       0.125000
     64 H1AA         9.3040     2.3300     1.6790 h1         1 PBH       0.061700
     65 H20         -3.9190    -3.8090     0.4250 ha         1 PBH       0.122500
     66 H21         -3.3610     0.4610    -0.1140 ha         1 PBH       0.122500
     67 H26         -8.1920     1.4730    -0.1330 ha         1 PBH       0.120000
     68 H27         -8.8400    -3.4520     0.4970 ha         1 PBH       0.127000
     69 H29        -10.8240    -1.9470     0.3660 ha         1 PBH       0.114000
     70 H2D         12.6860     4.2840     1.3970 hc         1 PBH       0.055700
     71 H2DA        12.0250     2.8000     2.1020 hc         1 PBH       0.055700
     72 H30        -11.9970    -0.4800    -1.2390 h1         1 PBH       0.043950
     73 H30A       -12.6300    -0.2510     0.4010 h1         1 PBH       0.043950
     74 H31        -11.2590     1.5980     1.9240 h1         1 PBH       0.043950
     75 H31A        -9.8890     2.3730     1.1220 h1         1 PBH       0.043950
     76 H32        -14.0270     0.9840    -1.1890 h1         1 PBH       0.038950
     77 H32A       -12.6200     1.7830    -1.8990 h1         1 PBH       0.038950
     78 H33        -11.3440     3.5040    -0.4820 h1         1 PBH       0.038950
     79 H33A       -11.9140     3.8330     1.1580 h1         1 PBH       0.038950
     80 H34        -15.0790     3.1900    -0.6750 h1         1 PBH       0.031367
     81 H34A       -14.1960     4.3800     0.3050 h1         1 PBH       0.031367
     82 H34B       -13.6920     4.0600    -1.3720 h1         1 PBH       0.031367
     83 HN40        -5.4880     0.6530    -0.0870 hn         1 PBH       0.354000
     84 H6D          9.6420    -1.6030    -0.1700 ha         1 PBH       0.138000
@<TRIPOS>BOND
     1     1    21 1   
     2     1    32 1   
     3     1    45 1   
     4     1    46 1   
     5     2     9 1   
     6     2    13 1   
     7     3     4 1   
     8     3    32 1   
     9     3    47 1   
    10     3    48 1   
    11     4    21 1   
    12     4    41 1   
    13     5    17 1   
    14     5    18 1   
    15     6    30 1   
    16     6    33 1   
    17     6    35 1   
    18     7    41 2   
    19     8    36 1   
    20     8    37 1   
    21     8    38 1   
    22     9    42 ar  
    23     9    43 ar  
    24    10    43 ar  
    25    10    44 ar  
    26    10    49 1   
    27    11    12 1   
    28    11    44 1   
    29    11    50 1   
    30    12    21 1   
    31    12    51 1   
    32    12    52 1   
    33    13    53 1   
    34    13    54 1   
    35    13    55 1   
    36    14    15 1   
    37    14    16 1   
    38    14    56 1   
    39    14    57 1   
    40    15    43 1   
    41    16    17 1   
    42    16    58 1   
    43    16    59 1   
    44    17    60 1   
    45    17    61 1   
    46    18    19 ar  
    47    18    20 ar  
    48    19    22 ar  
    49    19    62 1   
    50    20    23 ar  
    51    20    63 1   
    52    21    64 1   
    53    22    24 ar  
    54    22    65 1   
    55    23    24 ar  
    56    23    66 1   
    57    24    25 1   
    58    25    34 2   
    59    25    39 1   
    60    26    27 ar  
    61    26    28 ar  
    62    26    39 1   
    63    27    29 ar  
    64    27    34 1   
    65    28    30 ar  
    66    28    67 1   
    67    29    31 ar  
    68    29    68 1   
    69    30    31 ar  
    70    31    69 1   
    71    32    70 1   
    72    32    71 1   
    73    33    36 1   
    74    33    72 1   
    75    33    73 1   
    76    35    37 1   
    77    35    74 1   
    78    35    75 1   
    79    36    76 1   
    80    36    77 1   
    81    37    78 1   
    82    37    79 1   
    83    38    80 1   
    84    38    81 1   
    85    38    82 1   
    86    39    83 1   
    87    40    41 1   
    88    40    42 ar  
    89    40    44 ar  
    90    42    84 1   
@<TRIPOS>SUBSTRUCTURE
     1 PBH         1 TEMP              0 ****  ****    0 ROOT
