@<TRIPOS>MOLECULE
PBH
   84    90     1     0     0
SMALL
abcg2


@<TRIPOS>ATOM
      1 C1          10.1440     3.7890     1.6510 c5         1 PBH      -0.086400
      2 O2           7.1910    -2.9080    -0.1190 os         1 PBH      -0.321100
      3 C3          11.4690     2.8800    -0.1110 c5         1 PBH       0.095000
      4 N4          10.1580     2.2420    -0.1350 n          1 PBH      -0.412800
      5 O4           0.3750    -2.2370     0.4730 os         1 PBH      -0.342100
      6 N5         -10.5620     0.8530    -0.1820 nh         1 PBH      -0.791400
      7 O5          10.7780     0.5650    -1.5190 o          1 PBH      -0.560000
      8 N6         -12.9550     2.3950    -0.0380 n3         1 PBH      -0.714600
      9 C7           7.3410    -1.5800    -0.2700 ca         1 PBH       0.102100
     10 C9           6.2060     0.5500    -0.3740 ca         1 PBH      -0.163000
     11 N10          7.4180     2.6080    -0.7680 nu         1 PBH      -0.889200
     12 C11          7.9880     3.3650     0.3370 c3         1 PBH       0.160800
     13 C12          8.3410    -3.7230    -0.2170 c3         1 PBH       0.142900
     14 C13          3.7850    -0.8470    -0.0060 c3         1 PBH       0.163600
     15 O13          5.0270    -1.5290    -0.0040 os         1 PBH      -0.322100
     16 C14          2.7020    -1.8730     0.2560 c3         1 PBH      -0.088400
     17 C15          1.3310    -1.2320     0.1750 c3         1 PBH       0.166600
     18 C17         -0.9320    -1.9350     0.4140 ca         1 PBH       0.160100
     19 C18         -1.8200    -2.9760     0.7030 ca         1 PBH      -0.178000
     20 C19         -1.4380    -0.6790     0.0880 ca         1 PBH      -0.178000
     21 C1A          9.2750     2.7640     0.9130 c5         1 PBH       0.072700
     22 C20         -3.1800    -2.7620     0.6620 ca         1 PBH      -0.045000
     23 C21         -2.8110    -0.4780     0.0490 ca         1 PBH      -0.045000
     24 C22         -3.7040    -1.5060     0.3330 ca         1 PBH      -0.150900
     25 C23         -5.1500    -1.3250     0.2890 cc         1 PBH       0.474400
     26 C24         -7.1040    -0.3120     0.1200 ca         1 PBH      -0.051200
     27 C25         -7.2520    -1.6960     0.3020 ca         1 PBH       0.048400
     28 C26         -8.1740     0.5530    -0.0390 ca         1 PBH      -0.161000
     29 C27         -8.5340    -2.2350     0.3380 ca         1 PBH      -0.025000
     30 C28         -9.4590     0.0090     0.0030 ca         1 PBH       0.306000
     31 C29         -9.6150    -1.3820     0.2000 ca         1 PBH      -0.182000
     32 C2D         11.5760     3.3800     1.3220 c5         1 PBH      -0.098400
     33 C30        -11.8560     0.2430    -0.4080 c6         1 PBH       0.196800
     34 N30         -6.0210    -2.2940     0.4060 nd         1 PBH      -0.572100
     35 C31        -10.6640     2.0050     0.7040 c6         1 PBH       0.196800
     36 C32        -12.8330     1.2730    -0.9440 c6         1 PBH       0.157800
     37 C33        -11.6590     3.0100     0.1610 c6         1 PBH       0.157800
     38 C34        -13.9360     3.3500    -0.4980 c3         1 PBH       0.152100
     39 N40         -5.7500    -0.1100     0.1170 na         1 PBH      -0.317600
     40 C5A          8.5980     0.4590    -0.6010 ca         1 PBH      -0.176600
     41 C5D          9.9350     1.0930    -0.8020 c          1 PBH       0.576600
     42 C6D          8.5430    -0.9340    -0.4790 ca         1 PBH      -0.120000
     43 C8D          6.1510    -0.8230    -0.2090 ca         1 PBH       0.134100
     44 C9A          7.4240     1.2000    -0.5730 ca         1 PBH       0.247000
     45 H1           9.9470     4.7930     1.2670 hc         1 PBH       0.053700
     46 H1A          9.9340     3.8010     2.7190 hc         1 PBH       0.053700
     47 H3          12.2490     2.1710    -0.3810 h1         1 PBH       0.061200
     48 H3A         11.5040     3.7100    -0.8240 h1         1 PBH       0.061200
     49 H9           5.3080     1.1530    -0.3710 ha         1 PBH       0.134000
     50 HN10         7.9330     2.8350    -1.6090 hn         1 PBH       0.433000
     51 H11          8.1770     4.3740    -0.0330 h1         1 PBH       0.058200
     52 H11A         7.2580     3.4510     1.1470 h1         1 PBH       0.058200
     53 H12          9.0740    -3.4930     0.5610 h1         1 PBH       0.042700
     54 H12A         8.0040    -4.7480    -0.0870 h1         1 PBH       0.042700
     55 H12B         8.8250    -3.6320    -1.1930 h1         1 PBH       0.042700
     56 H13          3.7730    -0.0700     0.7670 h1         1 PBH       0.035700
     57 H13A         3.6250    -0.3550    -0.9730 h1         1 PBH       0.035700
     58 H14          2.7710    -2.6760    -0.4820 hc         1 PBH       0.074700
     59 H14A         2.8450    -2.3130     1.2460 hc         1 PBH       0.074700
     60 H15          1.1590    -0.8290    -0.8300 h1         1 PBH       0.036200
     61 H15A         1.2440    -0.4030     0.8850 h1         1 PBH       0.036200
     62 H18         -1.4300    -3.9520     0.9610 ha         1 PBH       0.125000
     63 H19         -0.7880     0.1540    -0.1410 ha         1 PBH       0.125000
     64 H1AA         9.0170     1.9440     1.5900 h1         1 PBH       0.061700
     65 H20         -3.8530    -3.5770     0.8880 ha         1 PBH       0.122500
     66 H21         -3.1620     0.5080    -0.2250 ha         1 PBH       0.122500
     67 H26         -8.0150     1.6090    -0.2140 ha         1 PBH       0.120000
     68 H27         -8.6890    -3.2960     0.4820 ha         1 PBH       0.127000
     69 H29        -10.6070    -1.8080     0.2560 ha         1 PBH       0.114000
     70 H2D         12.2860     4.2000     1.4250 hc         1 PBH       0.055700
     71 H2DA        11.9040     2.5670     1.9740 hc         1 PBH       0.055700
     72 H30        -11.7570    -0.5550    -1.1460 h1         1 PBH       0.043950
     73 H30A       -12.2690    -0.2060     0.5090 h1         1 PBH       0.043950
     74 H31        -10.9730     1.6920     1.7130 h1         1 PBH       0.043950
     75 H31A        -9.6950     2.4930     0.7980 h1         1 PBH       0.043950
     76 H32        -13.8100     0.7990    -1.0640 h1         1 PBH       0.038950
     77 H32A       -12.5030     1.5930    -1.9480 h1         1 PBH       0.038950
     78 H33        -11.2640     3.4430    -0.7750 h1         1 PBH       0.038950
     79 H33A       -11.7570     3.8290     0.8780 h1         1 PBH       0.038950
     80 H34        -14.9090     2.8660    -0.5990 h1         1 PBH       0.031367
     81 H34A       -14.0370     4.1610     0.2240 h1         1 PBH       0.031367
     82 H34B       -13.6820     3.7970    -1.4720 h1         1 PBH       0.031367
     83 HN40        -5.2910     0.7810     0.0160 hn         1 PBH       0.354000
     84 H6D          9.4640    -1.5000    -0.5340 ha         1 PBH       0.138000
@<TRIPOS>BOND
     1     1    21 1   
     2     1    32 1   
     3     1    45 1   
     4     1    46 1   
     5     2     9 1   
     6     2    13 1   
     7     3     4 1   
     8     3    32 1   
     9     3    47 1   
    10     3    48 1   
    11     4    21 1   
    12     4    41 1   
    13     5    17 1   
    14     5    18 1   
    15     6    30 1   
    16     6    33 1   
    17     6    35 1   
    18     7    41 2   
    19     8    36 1   
    20     8    37 1   
    21     8    38 1   
    22     9    42 ar  
    23     9    43 ar  
    24    10    43 ar  
    25    10    44 ar  
    26    10    49 1   
    27    11    12 1   
    28    11    44 1   
    29    11    50 1   
    30    12    21 1   
    31    12    51 1   
    32    12    52 1   
    33    13    53 1   
    34    13    54 1   
    35    13    55 1   
    36    14    15 1   
    37    14    16 1   
    38    14    56 1   
    39    14    57 1   
    40    15    43 1   
    41    16    17 1   
    42    16    58 1   
    43    16    59 1   
    44    17    60 1   
    45    17    61 1   
    46    18    19 ar  
    47    18    20 ar  
    48    19    22 ar  
    49    19    62 1   
    50    20    23 ar  
    51    20    63 1   
    52    21    64 1   
    53    22    24 ar  
    54    22    65 1   
    55    23    24 ar  
    56    23    66 1   
    57    24    25 1   
    58    25    34 2   
    59    25    39 1   
    60    26    27 ar  
    61    26    28 ar  
    62    26    39 1   
    63    27    29 ar  
    64    27    34 1   
    65    28    30 ar  
    66    28    67 1   
    67    29    31 ar  
    68    29    68 1   
    69    30    31 ar  
    70    31    69 1   
    71    32    70 1   
    72    32    71 1   
    73    33    36 1   
    74    33    72 1   
    75    33    73 1   
    76    35    37 1   
    77    35    74 1   
    78    35    75 1   
    79    36    76 1   
    80    36    77 1   
    81    37    78 1   
    82    37    79 1   
    83    38    80 1   
    84    38    81 1   
    85    38    82 1   
    86    39    83 1   
    87    40    41 1   
    88    40    42 ar  
    89    40    44 ar  
    90    42    84 1   
@<TRIPOS>SUBSTRUCTURE
     1 PBH         1 TEMP              0 ****  ****    0 ROOT
