@<TRIPOS>MOLECULE
PBI
   34    35     1     0     0
SMALL
No Charge or Current Charge


@<TRIPOS>ATOM
      1 N1           2.5780     0.8450     3.8850 n8         1 PBI      -0.978200
      2 CA1          1.9970    -0.2810     3.0830 c3         1 PBI       0.127500
      3 C1           0.9780     0.1360     2.0050 c2         1 PBI       0.451900
      4 N2           1.2790     0.1850     0.7480 n2         1 PBI      -0.591900
      5 N3          -0.3400     0.4930     2.3040 n          1 PBI      -0.376300
      6 C2          -1.0560     0.7830     1.1610 c          1 PBI       0.535000
      7 O2          -2.2450     1.0670     1.0930 o          1 PBI      -0.497000
      8 CA2          0.0160     0.6360     0.0600 c5         1 PBI       0.014500
      9 CA3         -0.9650     0.5020     3.6590 c3         1 PBI      -0.023000
     10 C3          -1.4170    -0.8730     4.1820 c          1 PBI       0.555900
     11 O3          -1.2050    -1.9310     3.5980 o          1 PBI      -0.497100
     12 CB2         -0.4200    -0.3710    -1.0380 c3         1 PBI      -0.038400
     13 CG2          0.5720    -0.6330    -2.2110 c6         1 PBI      -0.020300
     14 CD1         -0.0060    -1.7190    -3.1150 c2         1 PBI      -0.156200
     15 CD2          0.8600     0.6640    -2.9650 c2         1 PBI      -0.156200
     16 CE1         -0.3110    -1.5090    -4.4170 ce         1 PBI      -0.290200
     17 CE2          0.5450     0.8430    -4.2690 ce         1 PBI      -0.290200
     18 CZ          -0.0840    -0.2120    -5.1050 c          1 PBI       0.560500
     19 OH          -0.3770    -0.0310    -6.2780 o          1 PBI      -0.523100
     20 HN11         3.1020     1.4690     3.2570 hn         1 PBI       0.408500
     21 HN12         3.3030     0.4760     4.5140 hn         1 PBI       0.408500
     22 HA11         2.8250    -0.8180     2.5980 h1         1 PBI       0.048200
     23 HA12         1.5190    -0.9880     3.7750 h1         1 PBI       0.048200
     24 HA2          0.1550     1.6310    -0.3850 h1         1 PBI       0.112700
     25 HA31        -0.2590     0.9140     4.3900 h1         1 PBI       0.093200
     26 HA32        -1.8470     1.1550     3.6610 h1         1 PBI       0.093200
     27 HC3         -1.9650    -0.8540     5.1500 h4         1 PBI      -0.001800
     28 HB21        -0.6470    -1.3290    -0.5520 hc         1 PBI       0.059200
     29 HB22        -1.3740    -0.0310    -1.4620 hc         1 PBI       0.059200
     30 HG2          1.5090    -1.0050    -1.7720 hc         1 PBI       0.095700
     31 HD1         -0.1790    -2.6950    -2.6530 ha         1 PBI       0.182500
     32 HD2          1.3470     1.4610    -2.3980 ha         1 PBI       0.182500
     33 HE1         -0.7370    -2.3000    -5.0330 ha         1 PBI       0.200500
     34 HE2          0.7550     1.7830    -4.7780 ha         1 PBI       0.200500
@<TRIPOS>BOND
     1     1     2 1   
     2     1    20 1   
     3     1    21 1   
     4     2     3 1   
     5     2    22 1   
     6     2    23 1   
     7     3     4 2   
     8     3     5 1   
     9     4     8 1   
    10     5     6 1   
    11     5     9 1   
    12     6     7 2   
    13     6     8 1   
    14     8    12 1   
    15     8    24 1   
    16     9    10 1   
    17     9    25 1   
    18     9    26 1   
    19    10    11 2   
    20    10    27 1   
    21    12    13 1   
    22    12    28 1   
    23    12    29 1   
    24    13    14 1   
    25    13    15 1   
    26    13    30 1   
    27    14    16 2   
    28    14    31 1   
    29    15    17 2   
    30    15    32 1   
    31    16    18 1   
    32    16    33 1   
    33    17    18 1   
    34    17    34 1   
    35    18    19 2   
@<TRIPOS>SUBSTRUCTURE
     1 PBI         1 TEMP              0 ****  ****    0 ROOT
