@<TRIPOS>MOLECULE
PBI
   34    35     1     0     0
SMALL
bcc


@<TRIPOS>ATOM
      1 N1           3.2040     0.0980     2.4170 n8         1 PBI      -0.867800
      2 CA1          1.8840     0.0550     2.9980 c3         1 PBI       0.127500
      3 C1           0.8360     0.3760     1.9860 c2         1 PBI       0.451900
      4 N2           1.0300     0.5130     0.7390 n2         1 PBI      -0.591900
      5 N3          -0.4950     0.5110     2.3850 n          1 PBI      -0.443300
      6 C2          -1.2560     0.7640     1.2730 c          1 PBI       0.677500
      7 O2          -2.4520     0.9350     1.2500 o          1 PBI      -0.572500
      8 CA2         -0.2580     0.7660     0.1290 c5         1 PBI       0.014500
      9 CA3         -1.0050     0.4120     3.7240 c3         1 PBI      -0.023000
     10 C3          -1.1150    -1.0210     4.1950 c          1 PBI       0.555900
     11 O3          -1.2150    -1.3240     5.3530 o          1 PBI      -0.497100
     12 CB2         -0.6220    -0.2890    -0.9140 c3         1 PBI      -0.038400
     13 CG2          0.4540    -0.4730    -2.0030 c6         1 PBI      -0.020300
     14 CD1          0.0420    -1.5740    -2.9140 c2         1 PBI      -0.106200
     15 CD2          0.7660     0.7920    -2.7190 c2         1 PBI      -0.106200
     16 CE1         -0.0830    -1.4360    -4.2360 ce         1 PBI      -0.240200
     17 CE2          0.6470     0.9400    -4.0410 ce         1 PBI      -0.240200
     18 CZ           0.2010    -0.1610    -4.9040 c          1 PBI       0.560500
     19 OH           0.0770    -0.0230    -6.1120 o          1 PBI      -0.523100
     20 HN11         3.2870    -0.6070     1.6970 hn         1 PBI       0.353300
     21 HN12         3.8770    -0.1430     3.1310 hn         1 PBI       0.353300
     22 HA11         1.6140    -0.9120     3.4530 h1         1 PBI       0.048200
     23 HA12         1.8250     0.7880     3.8080 h1         1 PBI       0.048200
     24 HA2         -0.2600     1.7600    -0.3310 h1         1 PBI       0.112700
     25 HA31        -0.4070     0.9990     4.4240 h1         1 PBI       0.093200
     26 HA32        -2.0110     0.8430     3.7370 h1         1 PBI       0.093200
     27 HC3         -1.1210    -1.7780     3.3890 h4         1 PBI      -0.001800
     28 HB21        -0.7690    -1.2530    -0.4190 hc         1 PBI       0.059200
     29 HB22        -1.5730    -0.0140    -1.3750 hc         1 PBI       0.059200
     30 HG2          1.3680    -0.7920    -1.4830 hc         1 PBI       0.095700
     31 HD1         -0.1790    -2.5290    -2.4480 ha         1 PBI       0.132500
     32 HD2          1.1210     1.6260    -2.1230 ha         1 PBI       0.132500
     33 HE1         -0.3960    -2.2680    -4.8560 ha         1 PBI       0.150500
     34 HE2          0.8910     1.8810    -4.5190 ha         1 PBI       0.150500
@<TRIPOS>BOND
     1     1     2 1   
     2     1    20 1   
     3     1    21 1   
     4     2     3 1   
     5     2    22 1   
     6     2    23 1   
     7     3     4 2   
     8     3     5 1   
     9     4     8 1   
    10     5     6 1   
    11     5     9 1   
    12     6     7 2   
    13     6     8 1   
    14     8    12 1   
    15     8    24 1   
    16     9    10 1   
    17     9    25 1   
    18     9    26 1   
    19    10    11 2   
    20    10    27 1   
    21    12    13 1   
    22    12    28 1   
    23    12    29 1   
    24    13    14 1   
    25    13    15 1   
    26    13    30 1   
    27    14    16 2   
    28    14    31 1   
    29    15    17 2   
    30    15    32 1   
    31    16    18 1   
    32    16    33 1   
    33    17    18 1   
    34    17    34 1   
    35    18    19 2   
@<TRIPOS>SUBSTRUCTURE
     1 PBI         1 TEMP              0 ****  ****    0 ROOT
