@<TRIPOS>MOLECULE
PBL
   21    20     1     0     0
SMALL
No Charge or Current Charge


@<TRIPOS>ATOM
      1 C1           1.4290    -1.2520    -0.8940 c3         1 PBL      -0.106600
      2 C2           1.3370    -0.0850     0.1100 c3         1 PBL       0.404500
      3 O2           1.6470     1.1200    -0.5410 oh         1 PBL      -0.686750
      4 C3          -0.0050     0.0270     0.8900 c3         1 PBL      -0.118400
      5 C4          -1.3390     0.0760     0.0900 c3         1 PBL       0.404500
      6 O4          -2.3910     0.3010     0.9940 oh         1 PBL      -0.686750
      7 C5          -1.4180     1.1530    -1.0110 c3         1 PBL      -0.106600
      8 O1           2.3750    -0.2280     1.0460 oh         1 PBL      -0.686750
      9 O3          -1.6380    -1.1830    -0.4570 oh         1 PBL      -0.686750
     10 H1           2.4370    -1.3310    -1.3170 hc         1 PBL       0.053200
     11 H1A          1.1870    -2.2040    -0.4060 hc         1 PBL       0.053200
     12 H1B          0.7350    -1.1090    -1.7290 hc         1 PBL       0.053200
     13 H3          -0.0580    -0.8240     1.5800 hc         1 PBL       0.068200
     14 H3A          0.0450     0.9180     1.5280 hc         1 PBL       0.068200
     15 H5          -0.7260     0.9340    -1.8320 hc         1 PBL       0.053200
     16 H5A         -2.4290     1.2110    -1.4330 hc         1 PBL       0.053200
     17 H5B         -1.1680     2.1390    -0.6030 hc         1 PBL       0.053200
     18 HO2          1.4560     1.8250     0.1100 ho         1 PBL       0.454000
     19 HO4         -2.1890    -0.2570     1.7730 ho         1 PBL       0.454000
     20 H2           3.1380    -0.5720     0.5380 ho         1 PBL       0.454000
     21 H4          -2.3440    -1.0180    -1.1160 ho         1 PBL       0.454000
@<TRIPOS>BOND
     1     1     2 1   
     2     1    10 1   
     3     1    11 1   
     4     1    12 1   
     5     2     3 1   
     6     2     4 1   
     7     2     8 1   
     8     3    18 1   
     9     4     5 1   
    10     4    13 1   
    11     4    14 1   
    12     5     6 1   
    13     5     7 1   
    14     5     9 1   
    15     6    19 1   
    16     7    15 1   
    17     7    16 1   
    18     7    17 1   
    19     8    20 1   
    20     9    21 1   
@<TRIPOS>SUBSTRUCTURE
     1 PBL         1 TEMP              0 ****  ****    0 ROOT
