@<TRIPOS>MOLECULE
PBL
   21    20     1     0     0
SMALL
bcc


@<TRIPOS>ATOM
      1 C1           1.4090    -1.2440    -0.9200 c3         1 PBL      -0.106600
      2 C2           1.3300    -0.1070     0.0880 c3         1 PBL       0.358100
      3 O2           1.6130     1.0690    -0.6240 oh         1 PBL      -0.624550
      4 C3           0.0020    -0.0100     0.8530 c3         1 PBL      -0.118400
      5 C4          -1.3270     0.0770     0.0910 c3         1 PBL       0.358100
      6 O4          -2.3480     0.3890     1.0130 oh         1 PBL      -0.624550
      7 C5          -1.3920     1.1710    -0.9660 c3         1 PBL      -0.106600
      8 O1           2.2850    -0.2970     1.1100 oh         1 PBL      -0.624550
      9 O3          -1.5570    -1.1870    -0.4750 oh         1 PBL      -0.624550
     10 H1           2.4190    -1.3020    -1.3350 hc         1 PBL       0.053200
     11 H1A          1.1850    -2.1970    -0.4440 hc         1 PBL       0.053200
     12 H1B          0.7170    -1.1100    -1.7480 hc         1 PBL       0.053200
     13 H3          -0.0650    -0.8750     1.5220 hc         1 PBL       0.068200
     14 H3A          0.0620     0.8730     1.4980 hc         1 PBL       0.068200
     15 H5          -0.7130     0.9660    -1.7890 hc         1 PBL       0.053200
     16 H5A         -2.4050     1.2340    -1.3700 hc         1 PBL       0.053200
     17 H5B         -1.1380     2.1460    -0.5510 hc         1 PBL       0.053200
     18 HO2          1.4890     1.8260    -0.0400 ho         1 PBL       0.415000
     19 HO4         -2.3010    -0.2310     1.7510 ho         1 PBL       0.415000
     20 H2           3.1490    -0.4190     0.7000 ho         1 PBL       0.415000
     21 H4          -2.3340    -1.1340    -1.0440 ho         1 PBL       0.415000
@<TRIPOS>BOND
     1     1     2 1   
     2     1    10 1   
     3     1    11 1   
     4     1    12 1   
     5     2     3 1   
     6     2     4 1   
     7     2     8 1   
     8     3    18 1   
     9     4     5 1   
    10     4    13 1   
    11     4    14 1   
    12     5     6 1   
    13     5     7 1   
    14     5     9 1   
    15     6    19 1   
    16     7    15 1   
    17     7    16 1   
    18     7    17 1   
    19     8    20 1   
    20     9    21 1   
@<TRIPOS>SUBSTRUCTURE
     1 PBL         1 TEMP              0 ****  ****    0 ROOT
