@<TRIPOS>MOLECULE
PBN
   26    26     1     0     0
SMALL
bcc


@<TRIPOS>ATOM
      1 C1           0.0380     0.6840     3.7380 c3         1 PBN       0.149800
      2 C2           0.0070    -0.4300     2.7040 c3         1 PBN      -0.079400
      3 C3           0.0190     0.0930     1.2740 c3         1 PBN      -0.073400
      4 C4           0.0120    -1.0310     0.2390 c3         1 PBN      -0.030100
      5 C7           0.0210    -0.5140    -1.1720 ca         1 PBN      -0.077300
      6 C8           1.2220    -0.2440    -1.8250 ca         1 PBN      -0.125500
      7 C9           1.2340     0.2700    -3.1150 ca         1 PBN      -0.128000
      8 C10          0.0390     0.5250    -3.7760 ca         1 PBN      -0.130000
      9 C5          -1.1650     0.2600    -3.1360 ca         1 PBN      -0.128000
     10 C6          -1.1700    -0.2540    -1.8460 ca         1 PBN      -0.125500
     11 N            0.0300     0.1450     5.0920 n8         1 PBN      -0.885800
     12 H11         -0.7920     1.3790     3.5400 h1         1 PBN       0.026200
     13 H12          0.9560     1.2640     3.6090 h1         1 PBN       0.026200
     14 H21          0.8650    -1.0910     2.8640 hc         1 PBN       0.045700
     15 H22         -0.8870    -1.0450     2.8560 hc         1 PBN       0.045700
     16 H31         -0.8490     0.7410     1.1120 hc         1 PBN       0.041200
     17 H32          0.9010     0.7240     1.1210 hc         1 PBN       0.041200
     18 H41          0.8810    -1.6750     0.4010 hc         1 PBN       0.046700
     19 H42         -0.8700    -1.6580     0.3960 hc         1 PBN       0.046700
     20 H2           2.1610    -0.4430    -1.3210 ha         1 PBN       0.128000
     21 H3           2.1790     0.4680    -3.6060 ha         1 PBN       0.129000
     22 H4           0.0460     0.9230    -4.7830 ha         1 PBN       0.129000
     23 H5          -2.1020     0.4500    -3.6440 ha         1 PBN       0.129000
     24 H6          -2.1160    -0.4620    -1.3580 ha         1 PBN       0.128000
     25 HN1          0.1200     0.9030     5.7560 hn         1 PBN       0.335800
     26 HN2         -0.8740    -0.2710     5.2790 hn         1 PBN       0.335800
@<TRIPOS>BOND
     1     1     2 1   
     2     1    11 1   
     3     1    12 1   
     4     1    13 1   
     5     2     3 1   
     6     2    14 1   
     7     2    15 1   
     8     3     4 1   
     9     3    16 1   
    10     3    17 1   
    11     4     5 1   
    12     4    18 1   
    13     4    19 1   
    14     5     6 ar  
    15     5    10 ar  
    16     6     7 ar  
    17     6    20 1   
    18     7     8 ar  
    19     7    21 1   
    20     8     9 ar  
    21     8    22 1   
    22     9    10 ar  
    23     9    23 1   
    24    10    24 1   
    25    11    25 1   
    26    11    26 1   
@<TRIPOS>SUBSTRUCTURE
     1 PBN         1 TEMP              0 ****  ****    0 ROOT
