@<TRIPOS>MOLECULE
PBN
   26    26     1     0     0
SMALL
No Charge or Current Charge


@<TRIPOS>ATOM
      1 C1           0.0450     0.7000     3.7780 c3         1 PBN       0.149800
      2 C2           0.0280    -0.4360     2.7340 c3         1 PBN      -0.079400
      3 C3           0.0340     0.0860     1.2800 c3         1 PBN      -0.073400
      4 C4           0.0180    -1.0430     0.2270 c3         1 PBN      -0.030100
      5 C7           0.0240    -0.5000    -1.1950 ca         1 PBN      -0.077300
      6 C8           1.2430    -0.2590    -1.8590 ca         1 PBN      -0.107500
      7 C9           1.2490     0.2470    -3.1700 ca         1 PBN      -0.110000
      8 C10          0.0360     0.5160    -3.8260 ca         1 PBN      -0.112000
      9 C5          -1.1830     0.2800    -3.1690 ca         1 PBN      -0.110000
     10 C6          -1.1890    -0.2260    -1.8570 ca         1 PBN      -0.107500
     11 N            0.0410     0.1710     5.1540 n8         1 PBN      -0.996200
     12 H11         -0.8380     1.3400     3.6430 h1         1 PBN       0.026200
     13 H12          0.9450     1.3150     3.6400 h1         1 PBN       0.026200
     14 H21          0.9020    -1.0810     2.8880 hc         1 PBN       0.045700
     15 H22         -0.8630    -1.0570     2.8890 hc         1 PBN       0.045700
     16 H31         -0.8390     0.7330     1.1250 hc         1 PBN       0.041200
     17 H32          0.9240     0.7080     1.1240 hc         1 PBN       0.041200
     18 H41          0.8860    -1.6950     0.3850 hc         1 PBN       0.046700
     19 H42         -0.8680    -1.6710     0.3860 hc         1 PBN       0.046700
     20 H2           2.1870    -0.4620    -1.3570 ha         1 PBN       0.110000
     21 H3           2.1940     0.4310    -3.6780 ha         1 PBN       0.111000
     22 H4           0.0400     0.9080    -4.8410 ha         1 PBN       0.111000
     23 H5          -2.1230     0.4890    -3.6750 ha         1 PBN       0.111000
     24 H6          -2.1370    -0.4040    -1.3540 ha         1 PBN       0.110000
     25 HN1         -0.0110     0.9570     5.8130 hn         1 PBN       0.391000
     26 HN2         -0.8390    -0.3350     5.3140 hn         1 PBN       0.391000
@<TRIPOS>BOND
     1     1     2 1   
     2     1    11 1   
     3     1    12 1   
     4     1    13 1   
     5     2     3 1   
     6     2    14 1   
     7     2    15 1   
     8     3     4 1   
     9     3    16 1   
    10     3    17 1   
    11     4     5 1   
    12     4    18 1   
    13     4    19 1   
    14     5     6 ar  
    15     5    10 ar  
    16     6     7 ar  
    17     6    20 1   
    18     7     8 ar  
    19     7    21 1   
    20     8     9 ar  
    21     8    22 1   
    22     9    10 ar  
    23     9    23 1   
    24    10    24 1   
    25    11    25 1   
    26    11    26 1   
@<TRIPOS>SUBSTRUCTURE
     1 PBN         1 TEMP              0 ****  ****    0 ROOT
