@<TRIPOS>MOLECULE
PBO
   22    22     1     0     0
SMALL
No Charge or Current Charge


@<TRIPOS>ATOM
      1 C10         -0.9720     0.0140     4.3370 c3         1 PBO      -0.092100
      2 C11          0.1510     0.0000     3.2830 c3         1 PBO      -0.066400
      3 C12         -0.3870    -0.0010     1.8300 c3         1 PBO      -0.175400
      4 C13          0.6770    -0.0140     0.7130 c          1 PBO       0.587700
      5 C14          0.2430    -0.0160    -0.7300 ca         1 PBO      -0.229600
      6 C15          1.1990    -0.0270    -1.7680 ca         1 PBO      -0.022000
      7 C16          0.7480    -0.0280    -3.0960 ca         1 PBO      -0.176000
      8 C17         -0.6310    -0.0180    -3.3510 ca         1 PBO       0.357900
      9 N1          -1.5560    -0.0060    -2.3660 nb         1 PBO      -0.674000
     10 C18         -1.1210    -0.0060    -1.0840 ca         1 PBO       0.369900
     11 O13          1.8700    -0.0240     0.9930 o          1 PBO      -0.521100
     12 H103        -0.5480     0.0140     5.3480 hc         1 PBO       0.033367
     13 H101        -1.5970     0.9090     4.2270 hc         1 PBO       0.033367
     14 H102        -1.6120    -0.8710     4.2340 hc         1 PBO       0.033367
     15 H111         0.7930     0.8780     3.4340 hc         1 PBO       0.052700
     16 H112         0.7780    -0.8870     3.4410 hc         1 PBO       0.052700
     17 H121        -1.0660    -0.8440     1.6550 hc         1 PBO       0.062700
     18 H122        -1.0510     0.8520     1.6480 hc         1 PBO       0.062700
     19 H15          2.2680    -0.0350    -1.5560 ha         1 PBO       0.140000
     20 H16          1.4530    -0.0370    -3.9230 ha         1 PBO       0.129000
     21 H17         -1.0070    -0.0180    -4.3740 h4         1 PBO       0.021100
     22 H18         -1.9090     0.0030    -0.3330 h4         1 PBO       0.020100
@<TRIPOS>BOND
     1     1     2 1   
     2     1    12 1   
     3     1    13 1   
     4     1    14 1   
     5     2     3 1   
     6     2    15 1   
     7     2    16 1   
     8     3     4 1   
     9     3    17 1   
    10     3    18 1   
    11     4     5 1   
    12     4    11 2   
    13     5     6 ar  
    14     5    10 ar  
    15     6     7 ar  
    16     6    19 1   
    17     7     8 ar  
    18     7    20 1   
    19     8     9 ar  
    20     8    21 1   
    21     9    10 ar  
    22    10    22 1   
@<TRIPOS>SUBSTRUCTURE
     1 PBO         1 TEMP              0 ****  ****    0 ROOT
