@<TRIPOS>MOLECULE
PBO
   22    22     1     0     0
SMALL
abcg2


@<TRIPOS>ATOM
      1 C10         -0.9490     0.0130     4.2620 c3         1 PBO      -0.092100
      2 C11          0.1620     0.0030     3.2230 c3         1 PBO      -0.066400
      3 C12         -0.3950    -0.0020     1.8070 c3         1 PBO      -0.175400
      4 C13          0.6560    -0.0150     0.7280 c          1 PBO       0.587700
      5 C14          0.2150    -0.0150    -0.6980 ca         1 PBO      -0.229600
      6 C15          1.1670    -0.0280    -1.7160 ca         1 PBO      -0.022000
      7 C16          0.7440    -0.0290    -3.0320 ca         1 PBO      -0.176000
      8 C17         -0.6210    -0.0160    -3.2870 ca         1 PBO       0.357900
      9 N1          -1.5420    -0.0030    -2.3310 nb         1 PBO      -0.674000
     10 C18         -1.1270    -0.0020    -1.0710 ca         1 PBO       0.369900
     11 O13          1.8400    -0.0290     0.9890 o          1 PBO      -0.521100
     12 H103        -0.5410     0.0140     5.2730 hc         1 PBO       0.033367
     13 H101        -1.5820     0.8960     4.1610 hc         1 PBO       0.033367
     14 H102        -1.5910    -0.8650     4.1670 hc         1 PBO       0.033367
     15 H111         0.8050     0.8750     3.3620 hc         1 PBO       0.052700
     16 H112         0.7960    -0.8730     3.3710 hc         1 PBO       0.052700
     17 H121        -1.0500    -0.8690     1.6620 hc         1 PBO       0.062700
     18 H122        -1.0430     0.8690     1.6520 hc         1 PBO       0.062700
     19 H15          2.2230    -0.0380    -1.4800 ha         1 PBO       0.140000
     20 H16          1.4520    -0.0390    -3.8480 ha         1 PBO       0.129000
     21 H17         -0.9840    -0.0160    -4.3090 h4         1 PBO       0.021100
     22 H18         -1.9100     0.0080    -0.3230 h4         1 PBO       0.020100
@<TRIPOS>BOND
     1     1     2 1   
     2     1    12 1   
     3     1    13 1   
     4     1    14 1   
     5     2     3 1   
     6     2    15 1   
     7     2    16 1   
     8     3     4 1   
     9     3    17 1   
    10     3    18 1   
    11     4     5 1   
    12     4    11 2   
    13     5     6 ar  
    14     5    10 ar  
    15     6     7 ar  
    16     6    19 1   
    17     7     8 ar  
    18     7    20 1   
    19     8     9 ar  
    20     8    21 1   
    21     9    10 ar  
    22    10    22 1   
@<TRIPOS>SUBSTRUCTURE
     1 PBO         1 TEMP              0 ****  ****    0 ROOT
