@<TRIPOS>MOLECULE
PBP
   17    17     1     0     0
SMALL
abcg2


@<TRIPOS>ATOM
      1 CH           2.5500     0.6970     0.0490 c3         1 PBP      -0.041400
      2 CG           0.2060    -0.3080     0.0130 ca         1 PBP      -0.167600
      3 CD1         -0.6420    -1.4160    -0.0050 ca         1 PBP      -0.063500
      4 CE1         -2.0150    -1.2580    -0.0120 ca         1 PBP      -0.097000
      5 CD2         -0.3530     0.9690     0.0250 ca         1 PBP      -0.063500
      6 CE2         -1.7270     1.1440     0.0170 ca         1 PBP      -0.097000
      7 CZ          -2.5470     0.0260    -0.0010 ca         1 PBP       0.004100
      8 BR          -4.4160     0.2510    -0.0100 br         1 PBP      -0.083100
      9 CR           1.6760    -0.5390     0.0200 c          1 PBP       0.584700
     10 O            2.1370    -1.6540     0.0050 o          1 PBP      -0.482100
     11 HH1          2.3500     1.3260    -0.8200 h1         1 PBP       0.092700
     12 HH2          2.3410     1.2900     0.9410 h1         1 PBP       0.092700
     13 HD1         -0.2300    -2.4160    -0.0150 ha         1 PBP       0.129000
     14 HE1         -2.6580    -2.1280    -0.0270 ha         1 PBP       0.135500
     15 HD2          0.2690     1.8540     0.0390 ha         1 PBP       0.129000
     16 HE2         -2.1400     2.1430     0.0260 ha         1 PBP       0.135500
     17 BR2          4.4350     0.2630     0.0500 br         1 PBP      -0.206000
@<TRIPOS>BOND
     1     1     9 1   
     2     1    11 1   
     3     1    12 1   
     4     1    17 1   
     5     2     3 ar  
     6     2     5 ar  
     7     2     9 1   
     8     3     4 ar  
     9     3    13 1   
    10     4     7 ar  
    11     4    14 1   
    12     5     6 ar  
    13     5    15 1   
    14     6     7 ar  
    15     6    16 1   
    16     7     8 1   
    17     9    10 2   
@<TRIPOS>SUBSTRUCTURE
     1 PBP         1 TEMP              0 ****  ****    0 ROOT
