@<TRIPOS>MOLECULE
PBP
   17    17     1     0     0
SMALL
No Charge or Current Charge


@<TRIPOS>ATOM
      1 CH           2.6250     0.7070     0.0460 c3         1 PBP      -0.041400
      2 CG           0.2010    -0.3170     0.0150 ca         1 PBP      -0.167600
      3 CD1         -0.6640    -1.4370    -0.0070 ca         1 PBP      -0.063500
      4 CE1         -2.0600    -1.2670    -0.0150 ca         1 PBP      -0.097000
      5 CD2         -0.3710     0.9800     0.0280 ca         1 PBP      -0.063500
      6 CE2         -1.7680     1.1450     0.0200 ca         1 PBP      -0.097000
      7 CZ          -2.6100     0.0230    -0.0020 ca         1 PBP       0.004100
      8 Br          -4.5090     0.2530    -0.0120 br         1 PBP      -0.083100
      9 CR           1.7050    -0.5250     0.0230 c          1 PBP       0.584700
     10 O            2.1770    -1.6570     0.0110 o          1 PBP      -0.482100
     11 HH1          2.4270     1.3170    -0.8430 h1         1 PBP       0.092700
     12 HH2          2.4140     1.2920     0.9490 h1         1 PBP       0.092700
     13 HD1         -0.2600    -2.4480    -0.0170 ha         1 PBP       0.129000
     14 HE1         -2.7120    -2.1370    -0.0310 ha         1 PBP       0.135500
     15 HD2          0.2510     1.8720     0.0450 ha         1 PBP       0.129000
     16 HE2         -2.1960     2.1450     0.0300 ha         1 PBP       0.135500
     17 Br2          4.5870     0.2980     0.0550 br         1 PBP      -0.206000
@<TRIPOS>BOND
     1     1     9 1   
     2     1    11 1   
     3     1    12 1   
     4     1    17 1   
     5     2     3 ar  
     6     2     5 ar  
     7     2     9 1   
     8     3     4 ar  
     9     3    13 1   
    10     4     7 ar  
    11     4    14 1   
    12     5     6 ar  
    13     5    15 1   
    14     6     7 ar  
    15     6    16 1   
    16     7     8 1   
    17     9    10 2   
@<TRIPOS>SUBSTRUCTURE
     1 PBP         1 TEMP              0 ****  ****    0 ROOT
