@<TRIPOS>MOLECULE
PBQ
   21    22     1     0     0
SMALL
bcc


@<TRIPOS>ATOM
      1 CH          23.4530    50.3430    26.9230 ca         1 PBQ      -0.075900
      2 CG          24.6590    48.8920    28.4110 ca         1 PBQ      -0.139000
      3 CD1         25.0740    48.5110    29.7640 cc         1 PBQ      -0.048300
      4 CD2         25.1160    48.1660    27.3160 ca         1 PBQ      -0.030000
      5 CE2         24.7370    48.5330    26.0370 ca         1 PBQ      -0.070900
      6 CR          23.8000    49.9830    28.2270 ca         1 PBQ       0.215100
      7 O           23.2940    50.6950    29.2340 oh         1 PBQ      -0.461100
      8 C3          23.9130    49.6300    25.8290 ca         1 PBQ      -0.023000
      9 C7          25.3180    47.1940    31.5450 cc         1 PBQ      -0.043200
     10 C8          26.0000    48.3540    31.8160 cd         1 PBQ      -0.049900
     11 C9          25.8430    49.1870    30.6850 cd         1 PBQ      -0.075900
     12 N11         24.7710    47.3010    30.3120 na         1 PBQ      -0.119100
     13 BR13        25.3580    47.5470    24.5560 br         1 PBQ      -0.077100
     14 BR14        22.3210    51.8180    26.6570 br         1 PBQ      -0.055100
     15 BR17        26.6140    50.8550    30.4430 br         1 PBQ      -0.022100
     16 BR18        26.9460    48.7400    33.3560 br         1 PBQ      -0.013100
     17 BR19        25.1090    45.6980    32.6030 br         1 PBQ      -0.000100
     18 H3          23.6260    49.9270    24.8300 ha         1 PBQ       0.166000
     19 HD2         25.7790    47.3280    27.4810 ha         1 PBQ       0.154000
     20 H11         24.1850    46.6060    29.8720 hn         1 PBQ       0.317700
     21 H           23.4890    50.2820    30.0870 ho         1 PBQ       0.448000
@<TRIPOS>BOND
     1     1     6 ar  
     2     1     8 ar  
     3     1    14 1   
     4     2     3 1   
     5     2     4 ar  
     6     2     6 ar  
     7     3    11 2   
     8     3    12 1   
     9     4     5 ar  
    10     4    19 1   
    11     5     8 ar  
    12     5    13 1   
    13     6     7 1   
    14     7    21 1   
    15     8    18 1   
    16     9    10 2   
    17     9    12 1   
    18     9    17 1   
    19    10    11 1   
    20    10    16 1   
    21    11    15 1   
    22    12    20 1   
@<TRIPOS>SUBSTRUCTURE
     1 PBQ         1 TEMP              0 ****  ****    0 ROOT
