@<TRIPOS>MOLECULE
PBQ
   21    22     1     0     0
SMALL
No Charge or Current Charge


@<TRIPOS>ATOM
      1 CH          23.4620    50.4170    26.9080 ca         1 PBQ      -0.075900
      2 CG          24.6090    48.8810    28.4290 ca         1 PBQ      -0.139000
      3 CD1         24.9670    48.4330    29.7730 cc         1 PBQ      -0.099000
      4 CD2         25.0760    48.1520    27.3180 ca         1 PBQ      -0.012000
      5 CE2         24.7480    48.5590    26.0140 ca         1 PBQ      -0.070900
      6 CR          23.7890    50.0130    28.2180 ca         1 PBQ       0.215100
      7 O           23.2890    50.6980    29.2880 oh         1 PBQ      -0.500100
      8 C3          23.9450    49.6910    25.8050 ca         1 PBQ      -0.005000
      9 C7          25.3260    47.1500    31.6130 cc         1 PBQ      -0.093900
     10 C8          25.9560    48.3550    31.7920 cd         1 PBQ      -0.049900
     11 C9          25.7510    49.1510    30.6400 cd         1 PBQ      -0.075900
     12 N11         24.7420    47.1850    30.3470 na         1 PBQ      -0.068000
     13 Br13        25.4010    47.5660    24.5150 br         1 PBQ      -0.077100
     14 Br14        22.3500    51.9510    26.5960 br         1 PBQ      -0.055100
     15 Br17        26.4900    50.8710    30.3580 br         1 PBQ      -0.022100
     16 Br18        26.9630    48.8660    33.3070 br         1 PBQ      -0.013100
     17 Br19        25.2660    45.6760    32.7890 br         1 PBQ      -0.000100
     18 H3          23.6930    50.0020    24.7940 ha         1 PBQ       0.148000
     19 HD2         25.7040    47.2760    27.4670 ha         1 PBQ       0.136000
     20 H11         24.2250    46.4230    29.9190 hn         1 PBQ       0.368000
     21 H           23.6520    50.2730    30.0940 ho         1 PBQ       0.487000
@<TRIPOS>BOND
     1     1     6 ar  
     2     1     8 ar  
     3     1    14 1   
     4     2     3 1   
     5     2     4 ar  
     6     2     6 ar  
     7     3    11 2   
     8     3    12 1   
     9     4     5 ar  
    10     4    19 1   
    11     5     8 ar  
    12     5    13 1   
    13     6     7 1   
    14     7    21 1   
    15     8    18 1   
    16     9    10 2   
    17     9    12 1   
    18     9    17 1   
    19    10    11 1   
    20    10    16 1   
    21    11    15 1   
    22    12    20 1   
@<TRIPOS>SUBSTRUCTURE
     1 PBQ         1 TEMP              0 ****  ****    0 ROOT
