@<TRIPOS>MOLECULE
PBR
   13    13     1     0     0
SMALL
abcg2


@<TRIPOS>ATOM
      1 BR1          2.1340    -0.1740     2.7080 br         1 PBR      -0.034600
      2 BR2         -1.1410     0.0140     2.7980 br         1 PBR      -0.015600
      3 BR3         -2.8470     0.1530    -0.0000 br         1 PBR      -0.022100
      4 BR4         -1.2460     0.1010    -2.8620 br         1 PBR      -0.015600
      5 BR5          2.0450    -0.1070    -2.8840 br         1 PBR      -0.034600
      6 O1           3.1440    -0.2060    -0.2030 oh         1 PBR      -0.501100
      7 C1           1.1350    -0.1000     1.1240 ca         1 PBR      -0.083900
      8 C2          -0.2560    -0.0170     1.1540 ca         1 PBR       0.061600
      9 C3          -0.9810     0.0430    -0.0360 ca         1 PBR      -0.037900
     10 C4          -0.2990     0.0190    -1.2550 ca         1 PBR       0.061600
     11 C5           1.0880    -0.0670    -1.2790 ca         1 PBR      -0.083900
     12 C6           1.8240    -0.1280    -0.0910 ca         1 PBR       0.213100
     13 H1           3.5930    -0.2890     0.6490 ho         1 PBR       0.492000
@<TRIPOS>BOND
     1     1     7 1   
     2     2     8 1   
     3     3     9 1   
     4     4    10 1   
     5     5    11 1   
     6     6    12 1   
     7     6    13 1   
     8     7     8 ar  
     9     7    12 ar  
    10     8     9 ar  
    11     9    10 ar  
    12    10    11 ar  
    13    11    12 ar  
@<TRIPOS>SUBSTRUCTURE
     1 PBR         1 TEMP              0 ****  ****    0 ROOT
