@<TRIPOS>MOLECULE
PBR
   13    13     1     0     0
SMALL
No Charge or Current Charge


@<TRIPOS>ATOM
      1 Br1          2.1870    -0.1950     2.7570 br         1 PBR      -0.034600
      2 Br2         -1.1540     0.0160     2.8570 br         1 PBR      -0.015600
      3 Br3         -2.8980     0.1650     0.0110 br         1 PBR      -0.022100
      4 Br4         -1.3060     0.1040    -2.9260 br         1 PBR      -0.015600
      5 Br5          2.0360    -0.1070    -3.0070 br         1 PBR      -0.034600
      6 O1           3.2020    -0.2190    -0.1580 oh         1 PBR      -0.501100
      7 C1           1.1690    -0.1080     1.1220 ca         1 PBR      -0.083900
      8 C2          -0.2390    -0.0190     1.1620 ca         1 PBR       0.061600
      9 C3          -0.9750     0.0440    -0.0410 ca         1 PBR      -0.037900
     10 C4          -0.3030     0.0180    -1.2820 ca         1 PBR       0.061600
     11 C5           1.1050    -0.0710    -1.3190 ca         1 PBR      -0.083900
     12 C6           1.8380    -0.1330    -0.1180 ca         1 PBR       0.213100
     13 H1           3.5310    -0.2530     0.7650 ho         1 PBR       0.492000
@<TRIPOS>BOND
     1     1     7 1   
     2     2     8 1   
     3     3     9 1   
     4     4    10 1   
     5     5    11 1   
     6     6    12 1   
     7     6    13 1   
     8     7     8 ar  
     9     7    12 ar  
    10     8     9 ar  
    11     9    10 ar  
    12    10    11 ar  
    13    11    12 ar  
@<TRIPOS>SUBSTRUCTURE
     1 PBR         1 TEMP              0 ****  ****    0 ROOT
