@<TRIPOS>MOLECULE
PBS
  105   105     1     0     0
SMALL
No Charge or Current Charge


@<TRIPOS>ATOM
      1 C17         18.0420    -0.9910     1.0820 c3         1 PBS      -0.088100
      2 C16         16.8000    -0.0840     1.1690 c3         1 PBS      -0.074400
      3 C15         15.4990    -0.7970     0.7380 c3         1 PBS      -0.075400
      4 C14         14.2540     0.1130     0.8250 c3         1 PBS      -0.074400
      5 C13         12.9530    -0.6000     0.3940 c3         1 PBS      -0.074400
      6 C12         11.7080     0.3100     0.4810 c3         1 PBS      -0.073400
      7 C11         10.4080    -0.4030     0.0500 c3         1 PBS      -0.075400
      8 C10          9.1630     0.5070     0.1360 c3         1 PBS      -0.073400
      9 C9           7.8630    -0.2050    -0.2960 c3         1 PBS      -0.075400
     10 C8           6.6180     0.7050    -0.2110 c3         1 PBS      -0.073400
     11 C7           5.3180    -0.0060    -0.6450 c3         1 PBS      -0.075400
     12 C6           4.0730     0.9050    -0.5610 c3         1 PBS      -0.075400
     13 C5           2.7730     0.1950    -0.9970 c3         1 PBS      -0.074400
     14 C4           1.5280     1.1140    -0.9110 c3         1 PBS      -0.107400
     15 C3           0.2100     0.4700    -1.4300 c3         1 PBS       0.135300
     16 O32         -0.0600    -0.6870    -0.6170 oh         1 PBS      -0.652000
     17 C2          -1.0220     1.4540    -1.4100 c3         1 PBS       0.129300
     18 O1          -0.6760     2.6960    -2.0620 oh         1 PBS      -0.642000
     19 C1          -2.3370     0.9060    -2.0690 c3         1 PBS       0.091700
     20 N           -2.6470    -0.4720    -1.6550 ns         1 PBS      -0.498900
     21 C18         -3.6090    -1.2800    -2.2100 c          1 PBS       0.613100
     22 O2          -4.2480    -0.9580    -3.2010 o          1 PBS      -0.608100
     23 C19         -3.8000    -2.6270    -1.5060 c3         1 PBS      -0.150400
     24 C20         -5.0680    -2.6040    -0.6210 c3         1 PBS      -0.062400
     25 C21         -5.3290    -3.9350     0.1150 c3         1 PBS      -0.077400
     26 C22         -6.5850    -3.8830     1.0120 c3         1 PBS      -0.074400
     27 C23         -6.8540    -5.2100     1.7540 c3         1 PBS      -0.076400
     28 C24         -8.1090    -5.1560     2.6520 c3         1 PBS      -0.074400
     29 C25         -8.3790    -6.4800     3.3920 c3         1 PBS      -0.089100
     30 C           -3.5480     1.8520    -1.8100 c3         1 PBS       0.143600
     31 OC1         -3.9320     1.7360    -0.4240 os         1 PBS      -0.477000
     32 CG1         -5.0310     2.5570     0.0210 c6         1 PBS       0.359300
     33 OG          -6.2350     2.2300    -0.7100 os         1 PBS      -0.449000
     34 CG          -6.7150     0.8720    -0.5150 c6         1 PBS       0.171300
     35 CG5         -7.9500     0.6310    -1.4460 c3         1 PBS       0.170600
     36 OG6         -7.6730     0.8600    -2.8430 oh         1 PBS      -0.711000
     37 CG4         -7.0460     0.6030     0.9910 c6         1 PBS       0.147300
     38 OG5         -8.1510     1.3960     1.4730 oh         1 PBS      -0.714000
     39 CG3         -5.7860     0.9230     1.8480 c6         1 PBS       0.140300
     40 OG4         -6.0880     0.7880     3.2510 oh         1 PBS      -0.674000
     41 CG2         -5.2490     2.3610     1.5590 c6         1 PBS       0.114300
     42 OG3         -4.0290     2.5850     2.3070 oh         1 PBS      -0.711000
     43 H171        17.9300    -1.8670     1.7320 hc         1 PBS       0.031367
     44 H172        18.1970    -1.3400     0.0540 hc         1 PBS       0.031367
     45 H173        18.9380    -0.4430     1.3970 hc         1 PBS       0.031367
     46 H161        16.6930     0.2760     2.2000 hc         1 PBS       0.036200
     47 H162        16.9580     0.7980     0.5360 hc         1 PBS       0.036200
     48 H151        15.6110    -1.1570    -0.2920 hc         1 PBS       0.036700
     49 H152        15.3460    -1.6790     1.3710 hc         1 PBS       0.036700
     50 H141        14.1430     0.4730     1.8560 hc         1 PBS       0.037200
     51 H142        14.4080     0.9960     0.1920 hc         1 PBS       0.037200
     52 H131        13.0650    -0.9600    -0.6360 hc         1 PBS       0.036700
     53 H132        12.8000    -1.4830     1.0280 hc         1 PBS       0.036700
     54 H121        11.5970     0.6700     1.5120 hc         1 PBS       0.037200
     55 H122        11.8620     1.1920    -0.1520 hc         1 PBS       0.037200
     56 H111        10.5200    -0.7640    -0.9800 hc         1 PBS       0.037200
     57 H112        10.2530    -1.2850     0.6830 hc         1 PBS       0.037200
     58 H101         9.0510     0.8670     1.1660 hc         1 PBS       0.037200
     59 H102         9.3180     1.3900    -0.4970 hc         1 PBS       0.037200
     60 H91          7.9750    -0.5660    -1.3270 hc         1 PBS       0.037200
     61 H92          7.7070    -1.0880     0.3370 hc         1 PBS       0.037200
     62 H81          6.5050     1.0650     0.8190 hc         1 PBS       0.037200
     63 H82          6.7740     1.5880    -0.8440 hc         1 PBS       0.037200
     64 H71          5.4310    -0.3670    -1.6750 hc         1 PBS       0.038200
     65 H72          5.1620    -0.8890    -0.0120 hc         1 PBS       0.038200
     66 H61          3.9590     1.2640     0.4700 hc         1 PBS       0.037700
     67 H62          4.2320     1.7880    -1.1920 hc         1 PBS       0.037700
     68 H51          2.8880    -0.1610    -2.0290 hc         1 PBS       0.044200
     69 H52          2.6280    -0.6900    -0.3650 hc         1 PBS       0.044200
     70 H41          1.3870     1.4380     0.1280 hc         1 PBS       0.050200
     71 H42          1.7420     2.0190    -1.4920 hc         1 PBS       0.050200
     72 H3           0.3710     0.1590    -2.4720 h1         1 PBS       0.074700
     73 H32          0.7540    -1.2340    -0.6150 ho         1 PBS       0.438000
     74 H2          -1.2450     1.6520    -0.3520 h1         1 PBS       0.085700
     75 HO1         -0.3320     2.4810    -2.9560 ho         1 PBS       0.439000
     76 H1          -2.1710     0.8790    -3.1540 h1         1 PBS       0.076700
     77 HN          -2.1050    -0.8590    -0.8890 hn         1 PBS       0.314500
     78 H191        -3.9130    -3.4130    -2.2620 hc         1 PBS       0.053200
     79 H192        -2.9370    -2.8400    -0.8630 hc         1 PBS       0.053200
     80 H201        -4.9670    -1.8030     0.1220 hc         1 PBS       0.055700
     81 H202        -5.9390    -2.3600    -1.2420 hc         1 PBS       0.055700
     82 H211        -5.4430    -4.7390    -0.6220 hc         1 PBS       0.033700
     83 H212        -4.4550    -4.1850     0.7310 hc         1 PBS       0.033700
     84 H221        -6.4690    -3.0770     1.7480 hc         1 PBS       0.039200
     85 H222        -7.4570    -3.6310     0.3970 hc         1 PBS       0.039200
     86 H231        -6.9710    -6.0160     1.0190 hc         1 PBS       0.035700
     87 H232        -5.9810    -5.4630     2.3690 hc         1 PBS       0.035700
     88 H241        -7.9940    -4.3530     3.3900 hc         1 PBS       0.037200
     89 H242        -8.9840    -4.9060     2.0400 hc         1 PBS       0.037200
     90 H251        -8.5330    -7.2990     2.6790 hc         1 PBS       0.031033
     91 H252        -7.5340    -6.7410     4.0420 hc         1 PBS       0.031033
     92 H253        -9.2770    -6.3940     4.0150 hc         1 PBS       0.031033
     93 H1A         -3.2790     2.8870    -2.0580 h1         1 PBS       0.054700
     94 H2A         -4.3800     1.5630    -2.4650 h1         1 PBS       0.054700
     95 HG1         -4.7810     3.6130    -0.1630 h2         1 PBS       0.069700
     96 HG          -5.9280     0.1750    -0.8330 h1         1 PBS       0.055700
     97 HG51        -8.2890    -0.4030    -1.2960 h1         1 PBS       0.035200
     98 HG52        -8.7650     1.2900    -1.1160 h1         1 PBS       0.035200
     99 HG6         -8.5260     0.7640    -3.3260 ho         1 PBS       0.505000
    100 HG4         -7.2780    -0.4660     1.1060 h1         1 PBS       0.047700
    101 HG5         -8.0280     1.4060     2.4530 ho         1 PBS       0.521000
    102 HG3         -5.0010     0.2040     1.5690 h1         1 PBS       0.061700
    103 H4          -5.3480     1.2420     3.7170 ho         1 PBS       0.469000
    104 HG2         -6.0130     3.0870     1.8750 h1         1 PBS       0.064700
    105 H5          -3.2990     2.2460     1.7350 ho         1 PBS       0.512000
@<TRIPOS>BOND
     1     1     2 1   
     2     1    43 1   
     3     1    44 1   
     4     1    45 1   
     5     2     3 1   
     6     2    46 1   
     7     2    47 1   
     8     3     4 1   
     9     3    48 1   
    10     3    49 1   
    11     4     5 1   
    12     4    50 1   
    13     4    51 1   
    14     5     6 1   
    15     5    52 1   
    16     5    53 1   
    17     6     7 1   
    18     6    54 1   
    19     6    55 1   
    20     7     8 1   
    21     7    56 1   
    22     7    57 1   
    23     8     9 1   
    24     8    58 1   
    25     8    59 1   
    26     9    10 1   
    27     9    60 1   
    28     9    61 1   
    29    10    11 1   
    30    10    62 1   
    31    10    63 1   
    32    11    12 1   
    33    11    64 1   
    34    11    65 1   
    35    12    13 1   
    36    12    66 1   
    37    12    67 1   
    38    13    14 1   
    39    13    68 1   
    40    13    69 1   
    41    14    15 1   
    42    14    70 1   
    43    14    71 1   
    44    15    16 1   
    45    15    17 1   
    46    15    72 1   
    47    16    73 1   
    48    17    18 1   
    49    17    19 1   
    50    17    74 1   
    51    18    75 1   
    52    19    20 1   
    53    19    30 1   
    54    19    76 1   
    55    20    21 1   
    56    20    77 1   
    57    21    22 2   
    58    21    23 1   
    59    23    24 1   
    60    23    78 1   
    61    23    79 1   
    62    24    25 1   
    63    24    80 1   
    64    24    81 1   
    65    25    26 1   
    66    25    82 1   
    67    25    83 1   
    68    26    27 1   
    69    26    84 1   
    70    26    85 1   
    71    27    28 1   
    72    27    86 1   
    73    27    87 1   
    74    28    29 1   
    75    28    88 1   
    76    28    89 1   
    77    29    90 1   
    78    29    91 1   
    79    29    92 1   
    80    30    31 1   
    81    30    93 1   
    82    30    94 1   
    83    31    32 1   
    84    32    33 1   
    85    32    41 1   
    86    32    95 1   
    87    33    34 1   
    88    34    35 1   
    89    34    37 1   
    90    34    96 1   
    91    35    36 1   
    92    35    97 1   
    93    35    98 1   
    94    36    99 1   
    95    37    38 1   
    96    37    39 1   
    97    37   100 1   
    98    38   101 1   
    99    39    40 1   
   100    39    41 1   
   101    39   102 1   
   102    40   103 1   
   103    41    42 1   
   104    41   104 1   
   105    42   105 1   
@<TRIPOS>SUBSTRUCTURE
     1 PBS         1 TEMP              0 ****  ****    0 ROOT
